*Heading
** Job name: GOODMAN_MODEL Model name: Model-1_NLGEOM
** Generated by: Abaqus/CAE 2022.HF2
*Preprint, echo=NO, model=NO, history=NO, contact=NO
**
** PARTS
**
*Part, name=SPECIMEN
*Node
      1,  -7.78999996,         -80.,           0.
      2,  -13.3500004,         -80.,           0.
      3,  -13.3500004,        -110.,           0.
      4,  -7.78999996,        -110.,           0.
      5,           0.,         -80.,  -13.3500004
      6,           0.,         -80.,  -7.78999996
      7,           0.,        -110.,  -7.78999996
      8,           0.,        -110.,  -13.3500004
      9,   13.3500004,         -80.,           0.
     10,   7.78999996,         -80.,           0.
     11,   7.78999996,        -110.,           0.
     12,   13.3500004,        -110.,           0.
     13,           0.,         -80.,   7.78999996
     14,           0.,         -80.,   13.3500004
     15,           0.,        -110.,   13.3500004
     16,           0.,        -110.,   7.78999996
     17,  -7.78999996,         110.,           0.
     18,  -13.3500004,         -50.,           0.
     19,  -13.3500004,          50.,           0.
     20,  -13.3500004,         110.,           0.
** ... 15964 like lines cut
*Element, type=C3D8R
  1,   65, 1169,   34,    1, 1225, 9073, 1466,   73
  2, 1169, 1170,   35,   34, 9073, 9074, 1465, 1466
  3, 1170,   36,    2,   35, 9074, 1366,   90, 1465
  4,   64, 1171, 1169,   65, 1226, 9075, 9073, 1225
  5, 1171, 1172, 1170, 1169, 9075, 9076, 9074, 9073
  6, 1172,   37,   36, 1170, 9076, 1365, 1366, 9074
  7,   63, 1173, 1171,   64, 1227, 9077, 9075, 1226
  8, 1173, 1174, 1172, 1171, 9077, 9078, 9076, 9075
  9, 1174,   38,   37, 1172, 9078, 1364, 1365, 9076
 10,   62, 1175, 1173,   63, 1228, 9079, 9077, 1227
 11, 1175, 1176, 1174, 1173, 9079, 9080, 9078, 9077
 12, 1176,   39,   38, 1174, 9080, 1363, 1364, 9078
 13,   61, 1177, 1175,   62, 1229, 9081, 9079, 1228
 14, 1177, 1178, 1176, 1175, 9081, 9082, 9080, 9079
 15, 1178,   40,   39, 1176, 9082, 1362, 1363, 9080
 16,   60, 1179, 1177,   61, 1230, 9083, 9081, 1229
 17, 1179, 1180, 1178, 1177, 9083, 9084, 9082, 9081
 18, 1180,   41,   40, 1178, 9084, 1361, 1362, 9082
 19,   59, 1181, 1179,   60, 1231, 9085, 9083, 1230
 20, 1181, 1182, 1180, 1179, 9085, 9086, 9084, 9083
** ... 11860 like lines cut
*Nset, nset=Set-1, generate
     1,  15984,      1
*Elset, elset=Set-1, generate
     1,  11880,      1
** Section: Section-1
*Solid Section, elset=Set-1, material=AL2014_T6
,
*End Part
**  
**
** ASSEMBLY
**
*Assembly, name=Assembly
**  
*Instance, name=SPECIMEN-1, part=SPECIMEN
*End Instance
**  
*Nset, nset=Set-1, instance=SPECIMEN-1
    2,    3,    5,    8,    9,   12,   14,   15,   18,   21,   26,   31,   82,   83,   84,   85
   86,   87,   88,   89,   90,   91,   92,   93,   94,   95,   96,   97,  130,  131,  132,  133
  134,  135,  136,  137,  138,  139,  140,  141,  142,  143,  144,  145,  194,  195,  196,  197
  198,  199,  200,  201,  202,  203,  204,  205,  206,  207,  208,  209,  274,  275,  276,  277
  278,  279,  280,  281,  282,  283,  284,  285,  286,  287,  288,  289,  502,  503,  504,  505
  506,  507,  508,  509,  698,  699,  700,  701,  702,  703,  704,  705,  941,  942,  943,  944
  945,  946,  947,  948, 1153, 1154, 1155, 1156, 1157, 1158, 1159, 1160
*Elset, elset=Set-1, instance=SPECIMEN-1
     3,    45,    48,    90,    93,   135,   138,   180,   183,   225,   228,   270,   273,   315,   318,   360
   363,   405,   408,   450,   453,   495,   498,   540,   543,   585,   588,   630,   633,   675,   678,   720
   723,   765,   768,   810,   813,   855,   858,   900,   903,   945,   948,   990,   993,  1035,  1038,  1080
  1083,  1125,  1128,  1170,  1173,  1215,  1218,  1260,  1263,  1305,  1308,  1350,  1353,  1395,  1398,  1440
  1443,  1485,  1488,  1530,  1533,  1575,  1578,  1620,  1621,  1666,  1906,  1951,  2191,  2236,  2476,  2521
  2761,  2806,  3046,  3091,  3331,  3376,  3616,  3661,  3901,  3946,  4186,  4228,  4471,  4513,  4756,  4798
  5041,  5083,  5326,  5368,  5611,  5653,  5896,  5938,  6181,  6223,  6466,  6508,  6751,  6796,  7036,  7081
  7321,  7366,  7606,  7651,  7891,  7936,  8176,  8221,  8461,  8506,  8746,  8791,  9031,  9076,  9316,  9361
  9601,  9646,  9886,  9931, 10171, 10216, 10456, 10501, 10741, 10786, 11026, 11071, 11311, 11356, 11596, 11641
*Nset, nset=Set-2, instance=SPECIMEN-1
    2,    3,    4,    5,    7,    8,    9,   11,   12,   14,   15,   16,   18,   21,   26,   31
   50,   51,   74,   75,   76,   77,   78,   79,   80,   81,   82,   83,   84,   85,   86,   87
   88,   89,   90,   91,   92,   93,   94,   95,   96,   97,  114,  115,  130,  131,  132,  133
  134,  135,  136,  137,  138,  139,  140,  141,  142,  143,  144,  145,  146,  147,  148,  149
  150,  151,  152,  153,  178,  179,  194,  195,  196,  197,  198,  199,  200,  201,  202,  203
  204,  205,  206,  207,  208,  209,  210,  211,  212,  213,  214,  215,  216,  217,  242,  243
  258,  259,  260,  261,  262,  263,  264,  265,  274,  275,  276,  277,  278,  279,  280,  281
  282,  283,  284,  285,  286,  287,  288,  289,  502,  503,  504,  505,  506,  507,  508,  509
  698,  699,  700,  701,  702,  703,  704,  705,  941,  942,  943,  944,  945,  946,  947,  948
 1153, 1154, 1155, 1156, 1157, 1158, 1159, 1160, 1337, 1338, 1339, 1340, 1341, 1342, 1343, 1344
 1345, 1346, 1347, 1348, 1349, 1350, 1351, 1352, 1621, 1622, 1623, 1624, 1625, 1626, 1627, 1628
 1629, 1630, 1631, 1632, 1633, 1634, 1635, 1636, 1905, 1906, 1907, 1908, 1909, 1910, 1911, 1912
 1913, 1914, 1915, 1916, 1917, 1918, 1919, 1920, 2161, 2162, 2163, 2164, 2165, 2166, 2167, 2168
 2169, 2170, 2171, 2172, 2173, 2174, 2175, 2176
*Elset, elset=Set-2, instance=SPECIMEN-1
     3,    43,    44,    45,    48,    88,    89,    90,    93,   133,   134,   135,   138,   178,   179,   180
   183,   223,   224,   225,   228,   268,   269,   270,   273,   313,   314,   315,   318,   358,   359,   360
   363,   403,   404,   405,   408,   448,   449,   450,   453,   493,   494,   495,   498,   538,   539,   540
   543,   583,   584,   585,   588,   628,   629,   630,   633,   673,   674,   675,   678,   718,   719,   720
   723,   763,   764,   765,   768,   808,   809,   810,   813,   853,   854,   855,   858,   898,   899,   900
   903,   943,   944,   945,   948,   988,   989,   990,   993,  1033,  1034,  1035,  1038,  1078,  1079,  1080
  1083,  1123,  1124,  1125,  1128,  1168,  1169,  1170,  1173,  1213,  1214,  1215,  1218,  1258,  1259,  1260
  1263,  1303,  1304,  1305,  1308,  1348,  1349,  1350,  1353,  1393,  1394,  1395,  1398,  1438,  1439,  1440
  1443,  1483,  1484,  1485,  1488,  1528,  1529,  1530,  1533,  1573,  1574,  1575,  1578,  1618,  1619,  1620
  1621,  1666,  1906,  1951,  2191,  2236,  2476,  2521,  2761,  2806,  3046,  3091,  3331,  3376,  3616,  3661
  3901,  3946,  4186,  4228,  4471,  4513,  4756,  4798,  5041,  5083,  5326,  5368,  5611,  5653,  5896,  5938
  6181,  6223,  6466,  6508,  6751,  6796,  7036,  7081,  7321,  7366,  7606,  7651,  7891,  7936,  8176,  8221
  8461,  8506,  8746,  8791,  9031,  9076,  9316,  9361,  9601,  9646,  9886,  9931, 10171, 10216, 10456, 10501
 10741, 10786, 11026, 11071, 11311, 11356, 11596, 11641
*Nset, nset=Set-3, instance=SPECIMEN-1
   19,   20,   22,   23,   27,   28,   30,   33,  449,  450,  451,  452,  453,  454,  455,  456
  457,  458,  459,  460,  461,  462,  463,  464,  465,  466,  467,  468,  469,  470,  471,  472
  473,  474,  475,  476,  477,  486,  487,  488,  489,  490,  491,  492,  493,  494,  495,  496
  497,  498,  499,  500,  501,  559,  560,  561,  562,  563,  564,  565,  566,  567,  568,  569
  570,  571,  572,  573,  574,  575,  576,  577,  578,  579,  580,  581,  582,  583,  584,  585
  586,  587,  714,  715,  716,  717,  718,  719,  720,  721,  722,  723,  724,  725,  726,  727
  728,  729,  832,  833,  834,  835,  836,  837,  838,  839,  840,  841,  842,  843,  844,  845
  846,  847,  848,  849,  850,  851,  852,  853,  854,  855,  856,  857,  858,  859,  860,  917
  918,  919,  920,  921,  922,  923,  924,  925,  926,  927,  928,  929,  930,  931,  932, 1108
 1109, 1110, 1111, 1112, 1113, 1114, 1115, 1116, 1117, 1118, 1119, 1120, 1121, 1122, 1123, 1124
 1125, 1126, 1127, 1128, 1129, 1130, 1131, 1132, 1133, 1134, 1135, 1136, 1137, 1138, 1139, 1140
 1141, 1142, 1143, 1144, 1145, 1146, 1147, 1148, 1149, 1150, 1151, 1152, 3449, 3450, 3451, 3452
 3453, 3454, 3455, 3456, 3457, 3458, 3459, 3460, 3461, 3462, 3463, 3464, 3465, 3466, 3467, 3468
 3469, 3470, 3471, 3472, 3473, 3474, 3475, 3476, 3477, 3478, 3479, 3480, 3481, 3482, 3483, 3484
 3485, 3486, 3487, 3488, 3489, 3490, 3491, 3492, 3493, 3494, 3495, 3496, 3497, 3498, 3499, 3500
 3501, 3502, 3503, 3504, 3505, 3506, 3507, 3508, 3509, 3510, 3511, 3512, 3513, 3514, 3515, 3516
 3517, 3518, 3519, 3520, 3521, 3522, 3523, 3524, 3525, 3526, 3527, 3528, 3529, 3530, 3531, 3532
 3533, 3534, 3535, 3536, 3537, 3538, 3539, 3540, 3541, 3542, 3543, 3544, 3545, 3546, 3547, 3548
 3549, 3550, 3551, 3552, 3553, 3554, 3555, 3556, 3557, 3558, 3559, 3560, 3561, 3562, 3563, 3564
 3565, 3566, 3567, 3568, 3569, 3570, 3571, 3572, 3573, 3574, 3575, 3576, 3577, 3578, 3579, 3580
** ... 50 like lines cut
*Elset, elset=Set-3, instance=SPECIMEN-1
  1816,  1819,  1822,  1825,  1828,  1831,  1834,  1837,  1840,  1843,  1846,  1849,  1852,  1855,  1858,  1861
  1864,  1867,  1870,  1873,  1876,  1879,  1882,  1885,  1888,  1891,  1894,  1897,  1900,  1903,  2101,  2104
  2107,  2110,  2113,  2116,  2119,  2122,  2125,  2128,  2131,  2134,  2137,  2140,  2143,  2146,  2149,  2152
  2155,  2158,  2161,  2164,  2167,  2170,  2173,  2176,  2179,  2182,  2185,  2188,  2386,  2389,  2392,  2395
  2398,  2401,  2404,  2407,  2410,  2413,  2416,  2419,  2422,  2425,  2428,  2431,  2434,  2437,  2440,  2443
  2446,  2449,  2452,  2455,  2458,  2461,  2464,  2467,  2470,  2473,  2671,  2674,  2677,  2680,  2683,  2686
  2689,  2692,  2695,  2698,  2701,  2704,  2707,  2710,  2713,  2716,  2719,  2722,  2725,  2728,  2731,  2734
  2737,  2740,  2743,  2746,  2749,  2752,  2755,  2758,  2956,  2959,  2962,  2965,  2968,  2971,  2974,  2977
  2980,  2983,  2986,  2989,  2992,  2995,  2998,  3001,  3004,  3007,  3010,  3013,  3016,  3019,  3022,  3025
  3028,  3031,  3034,  3037,  3040,  3043,  3241,  3244,  3247,  3250,  3253,  3256,  3259,  3262,  3265,  3268
  3271,  3274,  3277,  3280,  3283,  3286,  3289,  3292,  3295,  3298,  3301,  3304,  3307,  3310,  3313,  3316
  3319,  3322,  3325,  3328,  3526,  3529,  3532,  3535,  3538,  3541,  3544,  3547,  3550,  3553,  3556,  3559
  3562,  3565,  3568,  3571,  3574,  3577,  3580,  3583,  3586,  3589,  3592,  3595,  3598,  3601,  3604,  3607
  3610,  3613,  3811,  3814,  3817,  3820,  3823,  3826,  3829,  3832,  3835,  3838,  3841,  3844,  3847,  3850
  3853,  3856,  3859,  3862,  3865,  3868,  3871,  3874,  3877,  3880,  3883,  3886,  3889,  3892,  3895,  3898
  4096,  4099,  4102,  4105,  4108,  4111,  4114,  4117,  4120,  4123,  4126,  4129,  4132,  4135,  4138,  4141
  4144,  4147,  4150,  4153,  4156,  4159,  4162,  4165,  4168,  4171,  4174,  4177,  4180,  4183,  4381,  4384
  4387,  4390,  4393,  4396,  4399,  4402,  4405,  4408,  4411,  4414,  4417,  4420,  4423,  4426,  4429,  4432
  4435,  4438,  4441,  4444,  4447,  4450,  4453,  4456,  4459,  4462,  4465,  4468,  4666,  4669,  4672,  4675
  4678,  4681,  4684,  4687,  4690,  4693,  4696,  4699,  4702,  4705,  4708,  4711,  4714,  4717,  4720,  4723
** ... 48 like lines cut
*End Assembly
** 
** MATERIALS
** 
*Material, name=AL2014_T6
*Elastic
68900., 0.33
*Plastic
330.,   0.
410., 0.13
*Material, name=AL7075
*Elastic
70000., 0.32
*Plastic
480.,   0.
570., 0.07
** 
** BOUNDARY CONDITIONS
** 
** Name: BC-1 Type: Displacement/Rotation
*Boundary
Set-2, 1, 1
Set-2, 2, 2
Set-2, 3, 3
Set-2, 4, 4
Set-2, 5, 5
Set-2, 6, 6
** ----------------------------------------------------------------
** 
** STEP: STATIC
** 
*Step, name=STATIC, nlgeom=YES
*Static
1., 1., 1e-05, 1.
** 
** BOUNDARY CONDITIONS
** 
** Name: BC-2 Type: Displacement/Rotation
*Boundary
Set-3, 2, 2, 1.
** 
** OUTPUT REQUESTS
** 
*Restart, write, frequency=0
** 
** FIELD OUTPUT: F-Output-1
** 
*Output, field, variable=PRESELECT
** 
** HISTORY OUTPUT: H-Output-1
** 
*Output, history, variable=PRESELECT
*End Step
