1

   Abaqus 2022.HF2                                  Date 29-Sep-2022   Time 15:53:36
   For use by VIRGINIA POLYTECHNIC INSTITUTE _ STATE UNIVERSITY under license from Dassault Systemes or its subsidiary.

                                                                                 
                                                                                 
 STEP    1     INCREMENT     1     STEP TIME    0.00    


                        S T E P       1     S T A T I C   A N A L Y S I S


                                                                                          

     AUTOMATIC TIME CONTROL WITH -
          A SUGGESTED INITIAL TIME INCREMENT OF                 1.00    
          AND A TOTAL TIME PERIOD OF                            1.00    
          THE MINIMUM TIME INCREMENT ALLOWED IS                1.000E-05
          THE MAXIMUM TIME INCREMENT ALLOWED IS                 1.00    

     LINEAR EQUATION SOLVER TYPE         DIRECT SPARSE

 CONVERGENCE TOLERANCE PARAMETERS FOR FORCE    
     CRITERION FOR RESIDUAL FORCE     FOR A NONLINEAR PROBLEM          5.000E-03
     CRITERION FOR DISP.    CORRECTION IN A NONLINEAR PROBLEM          1.000E-02
     INITIAL VALUE OF TIME AVERAGE FORCE                               1.000E-02
     AVERAGE FORCE     IS TIME AVERAGE FORCE    
     ALTERNATE CRIT. FOR RESIDUAL FORCE     FOR A NONLINEAR PROBLEM    2.000E-02
     CRITERION FOR ZERO FORCE     RELATIVE TO TIME AVRG. FORCE         1.000E-05
     CRITERION FOR RESIDUAL FORCE     WHEN THERE IS ZERO FLUX          1.000E-05
     CRITERION FOR DISP.    CORRECTION WHEN THERE IS ZERO FLUX         1.000E-03
     CRITERION FOR RESIDUAL FORCE     FOR A LINEAR INCREMENT           1.000E-08
     FIELD CONVERSION RATIO                                             1.00    
     CRITERION FOR ZERO FORCE     REL. TO TIME AVRG. MAX. FORCE        1.000E-05
     CRITERION FOR ZERO DISP.    RELATIVE TO CHARACTERISTIC LENGTH     1.000E-08

     VOLUMETRIC STRAIN COMPATIBILITY TOLERANCE FOR HYBRID SOLIDS       1.000E-05
     AXIAL STRAIN COMPATIBILITY TOLERANCE FOR HYBRID BEAMS             1.000E-05
     TRANS. SHEAR STRAIN COMPATIBILITY TOLERANCE FOR HYBRID BEAMS      1.000E-05
     SOFT CONTACT CONSTRAINT COMPATIBILITY TOLERANCE FOR P>P0          5.000E-03
     SOFT CONTACT CONSTRAINT COMPATIBILITY TOLERANCE FOR P=0.0         0.100    
     CONTACT FORCE ERROR TOLERANCE FOR CONVERT SDI=YES                 1.00    
     DISPLACEMENT COMPATIBILITY TOLERANCE FOR DCOUP ELEMENTS           1.000E-05
     ROTATION COMPATIBILITY TOLERANCE FOR DCOUP ELEMENTS               1.000E-05

 EQUILIBRIUM WILL BE CHECKED FOR SEVERE DISCONTINUITY ITERATIONS

 TIME INCREMENTATION CONTROL PARAMETERS:
     FIRST EQUILIBRIUM ITERATION FOR CONSECUTIVE DIVERGENCE CHECK              4
     EQUILIBRIUM ITERATION AT WHICH LOG. CONVERGENCE RATE CHECK BEGINS         8
     EQUILIBRIUM ITERATION AFTER WHICH ALTERNATE RESIDUAL IS USED              9
     MAXIMUM EQUILIBRIUM ITERATIONS ALLOWED                                   16
     EQUILIBRIUM ITERATION COUNT FOR CUT-BACK IN NEXT INCREMENT               10
     MAXIMUM EQUILIB. ITERS IN TWO INCREMENTS FOR TIME INCREMENT INCREASE      4
     MAXIMUM ITERATIONS FOR SEVERE DISCONTINUITIES                            50
     MAXIMUM ATTEMPTS ALLOWED IN AN INCREMENT                                  5
     MAXIMUM DISCON. ITERS IN TWO INCREMENTS FOR TIME INCREMENT INCREASE      50
     MAXIMUM CONTACT AUGMENTATIONS FOR *SURFACE BEHAVIOR,AUGMENTED LAGRANGE   50
     CUT-BACK FACTOR AFTER DIVERGENCE                                 0.2500    
     CUT-BACK FACTOR FOR TOO SLOW CONVERGENCE                         0.5000    
     CUT-BACK FACTOR AFTER TOO MANY EQUILIBRIUM ITERATIONS            0.7500    
     CUT-BACK FACTOR AFTER TOO MANY SEVERE DISCONTINUITY ITERATIONS   0.2500    
     CUT-BACK FACTOR AFTER PROBLEMS IN ELEMENT ASSEMBLY               0.2500    
     INCREASE FACTOR AFTER TWO INCREMENTS THAT CONVERGE QUICKLY        1.500    
     MAX. TIME INCREMENT INCREASE FACTOR ALLOWED                       1.500    
     MAX. TIME INCREMENT INCREASE FACTOR ALLOWED (DYNAMICS)            1.250    
     MAX. TIME INCREMENT INCREASE FACTOR ALLOWED (DIFFUSION)           2.000    
     MINIMUM TIME INCREMENT RATIO FOR EXTRAPOLATION TO OCCUR          0.1000    
     MAX. RATIO OF TIME INCREMENT TO STABILITY LIMIT                   1.000    
     FRACTION OF STABILITY LIMIT FOR NEW TIME INCREMENT               0.9500    
     TIME INCREMENT INCREASE FACTOR BEFORE A TIME POINT                1.000    
     GLOBAL STABILIZATION CONTROL IS NOT USED

          PRINT OF INCREMENT NUMBER, TIME, ETC., EVERY    1  INCREMENTS

     THE MAXIMUM NUMBER OF INCREMENTS IN THIS STEP IS                     100

          LARGE DISPLACEMENT THEORY WILL BE USED

     LINEAR EXTRAPOLATION WILL BE USED

     CHARACTERISTIC ELEMENT LENGTH      1.76    

     DETAILS REGARDING ACTUAL SOLUTION WAVEFRONT REQUESTED

     DETAILED OUTPUT OF DIAGNOSTICS TO DATABASE REQUESTED

     PRINT OF INCREMENT NUMBER, TIME, ETC., TO THE MESSAGE FILE EVERY     1  INCREMENTS

     ELEMENT OPERATIONS WILL BE CARRIED OUT IN PARALLEL USING   4 THREADS ON 1 DOMAIN

     PARALLEL CONTACT TRACKING ENABLED


     COLLECTING MODEL CONSTRAINT INFORMATION FOR OVERCONSTRAINT CHECKS

     COLLECTING STEP CONSTRAINT INFORMATION FOR OVERCONSTRAINT CHECKS


  INCREMENT     1 STARTS. ATTEMPT NUMBER  1, TIME INCREMENT   1.00    
 
     INITIAL ELEMENT LOAD BALANCE
            DOMAIN    1     THREAD    NUMBER OF ELEMENTS
                              1            2864
                              2            3016
                              3            3032
                              4            2968
 
	SYMMETRIC DIRECT SPARSE SOLVER RUNNING ON
 	1 HOST:        1 MPI RANK  x 4 THREADS
 	NUMBER OF EQUATIONS:     47952
 	NUMBER OF RHS:           1
 	NUMBER OF FLOPS:         9.313e+09

     CHECK POINT  START OF SOLVER     

     CHECK POINT  END OF SOLVER       

       ELAPSED USER TIME (SEC)      =   1.0000    
       ELAPSED SYSTEM TIME (SEC)    =   0.0000    
       ELAPSED TOTAL CPU TIME (SEC) =   1.0000    
       ELAPSED WALLCLOCK TIME (SEC) =            1

               CONVERGENCE CHECKS FOR EQUILIBRIUM ITERATION     1


 AVERAGE FORCE                       61.8       TIME AVG. FORCE        61.8    
 LARGEST RESIDUAL FORCE              751.       AT NODE        534   DOF  3
   INSTANCE: SPECIMEN-1                                                                      
 LARGEST INCREMENT OF DISP.          1.00       AT NODE       2984   DOF  2
   INSTANCE: SPECIMEN-1                                                                      
 LARGEST CORRECTION TO DISP.         1.00       AT NODE       2984   DOF  2
   INSTANCE: SPECIMEN-1                                                                      
          FORCE     EQUILIBRIUM NOT ACHIEVED WITHIN TOLERANCE.
 
	SYMMETRIC DIRECT SPARSE SOLVER RUNNING ON
 	1 HOST:        1 MPI RANK  x 4 THREADS
 	NUMBER OF EQUATIONS:     47952
 	NUMBER OF RHS:           1
 	NUMBER OF FLOPS:         9.313e+09

     CHECK POINT  START OF SOLVER     

     CHECK POINT  END OF SOLVER       

       ELAPSED USER TIME (SEC)      =  0.90000    
       ELAPSED SYSTEM TIME (SEC)    =   0.0000    
       ELAPSED TOTAL CPU TIME (SEC) =  0.90000    
       ELAPSED WALLCLOCK TIME (SEC) =            0

 ***WARNING: THE STRAIN INCREMENT HAS EXCEEDED FIFTY TIMES THE STRAIN TO CAUSE 
             FIRST YIELD AT 2880 POINTS

               CONVERGENCE CHECKS FOR EQUILIBRIUM ITERATION     2


 AVERAGE FORCE                      1.196E+03   TIME AVG. FORCE       1.196E+03
 LARGEST RESIDUAL FORCE             8.185E+04   AT NODE        973   DOF  3
   INSTANCE: SPECIMEN-1                                                                      
 LARGEST INCREMENT OF DISP.          8.88       AT NODE        909   DOF  2
   INSTANCE: SPECIMEN-1                                                                      
 LARGEST CORRECTION TO DISP.         8.14       AT NODE        909   DOF  2
   INSTANCE: SPECIMEN-1                                                                      
          FORCE     EQUILIBRIUM NOT ACHIEVED WITHIN TOLERANCE.
 
	SYMMETRIC DIRECT SPARSE SOLVER RUNNING ON
 	1 HOST:        1 MPI RANK  x 4 THREADS
 	NUMBER OF EQUATIONS:     47952
 	NUMBER OF RHS:           1
 	NUMBER OF FLOPS:         9.313e+09

     CHECK POINT  START OF SOLVER     

     CHECK POINT  END OF SOLVER       

       ELAPSED USER TIME (SEC)      =  0.90000    
       ELAPSED SYSTEM TIME (SEC)    =   0.0000    
       ELAPSED TOTAL CPU TIME (SEC) =  0.90000    
       ELAPSED WALLCLOCK TIME (SEC) =            0
 

 ***WARNING: THE SYSTEM MATRIX HAS 2714 NEGATIVE EIGENVALUES.

     NEGATIVE EIGENVALUES MEAN THAT THE SYSTEM MATRIX IS NOT 
     POSITIVE DEFINITE:
     FOR EXAMPLE, A BIFURCATION (BUCKLING) LOAD MAY HAVE BEEN EXCEEDED.
   ELEMENT SPECIMEN-1.1681 IS DISTORTING EXCESSIVELY.
   ELEMENT SPECIMEN-1.1685 IS DISTORTING EXCESSIVELY.
   ELEMENT SPECIMEN-1.1686 IS DISTORTING EXCESSIVELY.
   ELEMENT SPECIMEN-1.1721 IS DISTORTING EXCESSIVELY.
   ELEMENT SPECIMEN-1.1723 IS DISTORTING EXCESSIVELY.
   ELEMENT SPECIMEN-1.1724 IS DISTORTING EXCESSIVELY.
   ELEMENT SPECIMEN-1.1725 IS DISTORTING EXCESSIVELY.
   ELEMENT SPECIMEN-1.1771 IS DISTORTING EXCESSIVELY.
   ELEMENT SPECIMEN-1.1772 IS DISTORTING EXCESSIVELY.
   ELEMENT SPECIMEN-1.1773 IS DISTORTING EXCESSIVELY.
   ELEMENT SPECIMEN-1.1774 IS DISTORTING EXCESSIVELY.
   ELEMENT SPECIMEN-1.1962 IS DISTORTING EXCESSIVELY.
   ELEMENT SPECIMEN-1.1964 IS DISTORTING EXCESSIVELY.
   ELEMENT SPECIMEN-1.1965 IS DISTORTING EXCESSIVELY.
   ELEMENT SPECIMEN-1.1966 IS DISTORTING EXCESSIVELY.
   ELEMENT SPECIMEN-1.2025 IS DISTORTING EXCESSIVELY.
   ELEMENT SPECIMEN-1.2026 IS DISTORTING EXCESSIVELY.
   ELEMENT SPECIMEN-1.2027 IS DISTORTING EXCESSIVELY.
   ELEMENT SPECIMEN-1.2032 IS DISTORTING EXCESSIVELY.
   ELEMENT SPECIMEN-1.2089 IS DISTORTING EXCESSIVELY.
   ELEMENT SPECIMEN-1.2090 IS DISTORTING EXCESSIVELY.
   ELEMENT SPECIMEN-1.2092 IS DISTORTING EXCESSIVELY.
   ELEMENT SPECIMEN-1.2095 IS DISTORTING EXCESSIVELY.
   ELEMENT SPECIMEN-1.2245 IS DISTORTING EXCESSIVELY.
   ELEMENT SPECIMEN-1.2247 IS DISTORTING EXCESSIVELY.
   ELEMENT SPECIMEN-1.2281 IS DISTORTING EXCESSIVELY.
   ELEMENT SPECIMEN-1.2282 IS DISTORTING EXCESSIVELY.
   ELEMENT SPECIMEN-1.2283 IS DISTORTING EXCESSIVELY.
   ELEMENT SPECIMEN-1.2285 IS DISTORTING EXCESSIVELY.
   ELEMENT SPECIMEN-1.2287 IS DISTORTING EXCESSIVELY.
   ELEMENT SPECIMEN-1.2288 IS DISTORTING EXCESSIVELY.
   ELEMENT SPECIMEN-1.2364 IS DISTORTING EXCESSIVELY.
   ELEMENT SPECIMEN-1.2365 IS DISTORTING EXCESSIVELY.
   ELEMENT SPECIMEN-1.2368 IS DISTORTING EXCESSIVELY.
   ELEMENT SPECIMEN-1.2540 IS DISTORTING EXCESSIVELY.
   ELEMENT SPECIMEN-1.2541 IS DISTORTING EXCESSIVELY.
   ELEMENT SPECIMEN-1.2543 IS DISTORTING EXCESSIVELY.
   ELEMENT SPECIMEN-1.2609 IS DISTORTING EXCESSIVELY.
   ELEMENT SPECIMEN-1.2611 IS DISTORTING EXCESSIVELY.
   ELEMENT SPECIMEN-1.2612 IS DISTORTING EXCESSIVELY.
   ELEMENT SPECIMEN-1.2658 IS DISTORTING EXCESSIVELY.
   ELEMENT SPECIMEN-1.2660 IS DISTORTING EXCESSIVELY.
   ELEMENT SPECIMEN-1.2661 IS DISTORTING EXCESSIVELY.
   ELEMENT SPECIMEN-1.2662 IS DISTORTING EXCESSIVELY.
   ELEMENT SPECIMEN-1.2819 IS DISTORTING EXCESSIVELY.
   ELEMENT SPECIMEN-1.2821 IS DISTORTING EXCESSIVELY.
   ELEMENT SPECIMEN-1.2822 IS DISTORTING EXCESSIVELY.
   ELEMENT SPECIMEN-1.2824 IS DISTORTING EXCESSIVELY.
   ELEMENT SPECIMEN-1.2866 IS DISTORTING EXCESSIVELY.
   ELEMENT SPECIMEN-1.2867 IS DISTORTING EXCESSIVELY.
   ELEMENT SPECIMEN-1.2868 IS DISTORTING EXCESSIVELY.
   ELEMENT SPECIMEN-1.2869 IS DISTORTING EXCESSIVELY.
   ELEMENT SPECIMEN-1.2870 IS DISTORTING EXCESSIVELY.
   ELEMENT SPECIMEN-1.2937 IS DISTORTING EXCESSIVELY.
   ELEMENT SPECIMEN-1.2940 IS DISTORTING EXCESSIVELY.
   ELEMENT SPECIMEN-1.2943 IS DISTORTING EXCESSIVELY.
   ELEMENT SPECIMEN-1.3100 IS DISTORTING EXCESSIVELY.
   ELEMENT SPECIMEN-1.3102 IS DISTORTING EXCESSIVELY.
   ELEMENT SPECIMEN-1.3104 IS DISTORTING EXCESSIVELY.
   ELEMENT SPECIMEN-1.3164 IS DISTORTING EXCESSIVELY.
   ELEMENT SPECIMEN-1.3168 IS DISTORTING EXCESSIVELY.
   ELEMENT SPECIMEN-1.3210 IS DISTORTING EXCESSIVELY.
   ELEMENT SPECIMEN-1.3213 IS DISTORTING EXCESSIVELY.
   ELEMENT SPECIMEN-1.3214 IS DISTORTING EXCESSIVELY.
   ELEMENT SPECIMEN-1.3215 IS DISTORTING EXCESSIVELY.
   ELEMENT SPECIMEN-1.3385 IS DISTORTING EXCESSIVELY.
   ELEMENT SPECIMEN-1.3387 IS DISTORTING EXCESSIVELY.
   ELEMENT SPECIMEN-1.3389 IS DISTORTING EXCESSIVELY.
   ELEMENT SPECIMEN-1.3390 IS DISTORTING EXCESSIVELY.
   ELEMENT SPECIMEN-1.3391 IS DISTORTING EXCESSIVELY.
   ELEMENT SPECIMEN-1.3442 IS DISTORTING EXCESSIVELY.
   ELEMENT SPECIMEN-1.3445 IS DISTORTING EXCESSIVELY.
   ELEMENT SPECIMEN-1.3447 IS DISTORTING EXCESSIVELY.
   ELEMENT SPECIMEN-1.3448 IS DISTORTING EXCESSIVELY.
   ELEMENT SPECIMEN-1.3505 IS DISTORTING EXCESSIVELY.
   ELEMENT SPECIMEN-1.3508 IS DISTORTING EXCESSIVELY.
   ELEMENT SPECIMEN-1.3511 IS DISTORTING EXCESSIVELY.
   ELEMENT SPECIMEN-1.3682 IS DISTORTING EXCESSIVELY.
   ELEMENT SPECIMEN-1.3683 IS DISTORTING EXCESSIVELY.
   ELEMENT SPECIMEN-1.3684 IS DISTORTING EXCESSIVELY.
   ELEMENT SPECIMEN-1.3685 IS DISTORTING EXCESSIVELY.
   ELEMENT SPECIMEN-1.3686 IS DISTORTING EXCESSIVELY.
   ELEMENT SPECIMEN-1.3754 IS DISTORTING EXCESSIVELY.
   ELEMENT SPECIMEN-1.3755 IS DISTORTING EXCESSIVELY.
   ELEMENT SPECIMEN-1.3793 IS DISTORTING EXCESSIVELY.
   ELEMENT SPECIMEN-1.3794 IS DISTORTING EXCESSIVELY.
   ELEMENT SPECIMEN-1.3795 IS DISTORTING EXCESSIVELY.
   ELEMENT SPECIMEN-1.3796 IS DISTORTING EXCESSIVELY.
   ELEMENT SPECIMEN-1.3797 IS DISTORTING EXCESSIVELY.
   ELEMENT SPECIMEN-1.3798 IS DISTORTING EXCESSIVELY.
   ELEMENT SPECIMEN-1.3799 IS DISTORTING EXCESSIVELY.
   ELEMENT SPECIMEN-1.3800 IS DISTORTING EXCESSIVELY.
   ELEMENT SPECIMEN-1.3961 IS DISTORTING EXCESSIVELY.
   ELEMENT SPECIMEN-1.3965 IS DISTORTING EXCESSIVELY.
   ELEMENT SPECIMEN-1.3966 IS DISTORTING EXCESSIVELY.
   ELEMENT SPECIMEN-1.4001 IS DISTORTING EXCESSIVELY.
   ELEMENT SPECIMEN-1.4003 IS DISTORTING EXCESSIVELY.
   ELEMENT SPECIMEN-1.4004 IS DISTORTING EXCESSIVELY.
   ELEMENT SPECIMEN-1.4005 IS DISTORTING EXCESSIVELY.
   ELEMENT SPECIMEN-1.4051 IS DISTORTING EXCESSIVELY.
   ELEMENT SPECIMEN-1.4052 IS DISTORTING EXCESSIVELY.
   ELEMENT SPECIMEN-1.4053 IS DISTORTING EXCESSIVELY.
   ELEMENT SPECIMEN-1.4054 IS DISTORTING EXCESSIVELY.
   ELEMENT SPECIMEN-1.4240 IS DISTORTING EXCESSIVELY.
   ELEMENT SPECIMEN-1.4282 IS DISTORTING EXCESSIVELY.
   ELEMENT SPECIMEN-1.4283 IS DISTORTING EXCESSIVELY.
   ELEMENT SPECIMEN-1.4285 IS DISTORTING EXCESSIVELY.
   ELEMENT SPECIMEN-1.4286 IS DISTORTING EXCESSIVELY.
   ELEMENT SPECIMEN-1.4288 IS DISTORTING EXCESSIVELY.
   ELEMENT SPECIMEN-1.4356 IS DISTORTING EXCESSIVELY.
   ELEMENT SPECIMEN-1.4358 IS DISTORTING EXCESSIVELY.
   ELEMENT SPECIMEN-1.4359 IS DISTORTING EXCESSIVELY.
   ELEMENT SPECIMEN-1.4360 IS DISTORTING EXCESSIVELY.
   ELEMENT SPECIMEN-1.4537 IS DISTORTING EXCESSIVELY.
   ELEMENT SPECIMEN-1.4538 IS DISTORTING EXCESSIVELY.
   ELEMENT SPECIMEN-1.4539 IS DISTORTING EXCESSIVELY.
   ELEMENT SPECIMEN-1.4540 IS DISTORTING EXCESSIVELY.
   ELEMENT SPECIMEN-1.4541 IS DISTORTING EXCESSIVELY.
   ELEMENT SPECIMEN-1.4544 IS DISTORTING EXCESSIVELY.
   ELEMENT SPECIMEN-1.4625 IS DISTORTING EXCESSIVELY.
   ELEMENT SPECIMEN-1.4627 IS DISTORTING EXCESSIVELY.
   ELEMENT SPECIMEN-1.4628 IS DISTORTING EXCESSIVELY.
   ELEMENT SPECIMEN-1.4630 IS DISTORTING EXCESSIVELY.
   ELEMENT SPECIMEN-1.4631 IS DISTORTING EXCESSIVELY.
   ELEMENT SPECIMEN-1.4833 IS DISTORTING EXCESSIVELY.
   ELEMENT SPECIMEN-1.4836 IS DISTORTING EXCESSIVELY.
   ELEMENT SPECIMEN-1.4837 IS DISTORTING EXCESSIVELY.
   ELEMENT SPECIMEN-1.4838 IS DISTORTING EXCESSIVELY.
   ELEMENT SPECIMEN-1.4882 IS DISTORTING EXCESSIVELY.
   ELEMENT SPECIMEN-1.4883 IS DISTORTING EXCESSIVELY.
   ELEMENT SPECIMEN-1.4884 IS DISTORTING EXCESSIVELY.
   ELEMENT SPECIMEN-1.4886 IS DISTORTING EXCESSIVELY.
   ELEMENT SPECIMEN-1.4887 IS DISTORTING EXCESSIVELY.
   ELEMENT SPECIMEN-1.5105 IS DISTORTING EXCESSIVELY.
   ELEMENT SPECIMEN-1.5106 IS DISTORTING EXCESSIVELY.
   ELEMENT SPECIMEN-1.5108 IS DISTORTING EXCESSIVELY.
   ELEMENT SPECIMEN-1.5110 IS DISTORTING EXCESSIVELY.
   ELEMENT SPECIMEN-1.5112 IS DISTORTING EXCESSIVELY.
   ELEMENT SPECIMEN-1.5195 IS DISTORTING EXCESSIVELY.
   ELEMENT SPECIMEN-1.5196 IS DISTORTING EXCESSIVELY.
   ELEMENT SPECIMEN-1.5199 IS DISTORTING EXCESSIVELY.
   ELEMENT SPECIMEN-1.5380 IS DISTORTING EXCESSIVELY.
   ELEMENT SPECIMEN-1.5384 IS DISTORTING EXCESSIVELY.
   ELEMENT SPECIMEN-1.5425 IS DISTORTING EXCESSIVELY.
   ELEMENT SPECIMEN-1.5427 IS DISTORTING EXCESSIVELY.
   ELEMENT SPECIMEN-1.5428 IS DISTORTING EXCESSIVELY.
   ELEMENT SPECIMEN-1.5429 IS DISTORTING EXCESSIVELY.
   ELEMENT SPECIMEN-1.5431 IS DISTORTING EXCESSIVELY.
   ELEMENT SPECIMEN-1.5432 IS DISTORTING EXCESSIVELY.
   ELEMENT SPECIMEN-1.5518 IS DISTORTING EXCESSIVELY.
   ELEMENT SPECIMEN-1.5693 IS DISTORTING EXCESSIVELY.
   ELEMENT SPECIMEN-1.5723 IS DISTORTING EXCESSIVELY.
   ELEMENT SPECIMEN-1.5724 IS DISTORTING EXCESSIVELY.
   ELEMENT SPECIMEN-1.5725 IS DISTORTING EXCESSIVELY.
   ELEMENT SPECIMEN-1.5769 IS DISTORTING EXCESSIVELY.
   ELEMENT SPECIMEN-1.5773 IS DISTORTING EXCESSIVELY.
   ELEMENT SPECIMEN-1.5775 IS DISTORTING EXCESSIVELY.
   ELEMENT SPECIMEN-1.5969 IS DISTORTING EXCESSIVELY.
   ELEMENT SPECIMEN-1.5971 IS DISTORTING EXCESSIVELY.
   ELEMENT SPECIMEN-1.5972 IS DISTORTING EXCESSIVELY.
   ELEMENT SPECIMEN-1.5973 IS DISTORTING EXCESSIVELY.
   ELEMENT SPECIMEN-1.5976 IS DISTORTING EXCESSIVELY.
   ELEMENT SPECIMEN-1.6026 IS DISTORTING EXCESSIVELY.
   ELEMENT SPECIMEN-1.6027 IS DISTORTING EXCESSIVELY.
   ELEMENT SPECIMEN-1.6030 IS DISTORTING EXCESSIVELY.
   ELEMENT SPECIMEN-1.6032 IS DISTORTING EXCESSIVELY.
   ELEMENT SPECIMEN-1.6235 IS DISTORTING EXCESSIVELY.
   ELEMENT SPECIMEN-1.6237 IS DISTORTING EXCESSIVELY.
   ELEMENT SPECIMEN-1.6239 IS DISTORTING EXCESSIVELY.
   ELEMENT SPECIMEN-1.6240 IS DISTORTING EXCESSIVELY.
   ELEMENT SPECIMEN-1.6314 IS DISTORTING EXCESSIVELY.
   ELEMENT SPECIMEN-1.6315 IS DISTORTING EXCESSIVELY.
   ELEMENT SPECIMEN-1.6317 IS DISTORTING EXCESSIVELY.
   ELEMENT SPECIMEN-1.6319 IS DISTORTING EXCESSIVELY.
   ELEMENT SPECIMEN-1.6320 IS DISTORTING EXCESSIVELY.
   ELEMENT SPECIMEN-1.6524 IS DISTORTING EXCESSIVELY.
   ELEMENT SPECIMEN-1.6525 IS DISTORTING EXCESSIVELY.
   ELEMENT SPECIMEN-1.6526 IS DISTORTING EXCESSIVELY.
   ELEMENT SPECIMEN-1.6578 IS DISTORTING EXCESSIVELY.
   ELEMENT SPECIMEN-1.6579 IS DISTORTING EXCESSIVELY.
   ELEMENT SPECIMEN-1.6580 IS DISTORTING EXCESSIVELY.
   ELEMENT SPECIMEN-1.6582 IS DISTORTING EXCESSIVELY.
   ELEMENT SPECIMEN-1.6583 IS DISTORTING EXCESSIVELY.
   ELEMENT SPECIMEN-1.6584 IS DISTORTING EXCESSIVELY.
   ELEMENT SPECIMEN-1.6820 IS DISTORTING EXCESSIVELY.
   ELEMENT SPECIMEN-1.6822 IS DISTORTING EXCESSIVELY.
   ELEMENT SPECIMEN-1.6823 IS DISTORTING EXCESSIVELY.
   ELEMENT SPECIMEN-1.6865 IS DISTORTING EXCESSIVELY.
   ELEMENT SPECIMEN-1.6867 IS DISTORTING EXCESSIVELY.
   ELEMENT SPECIMEN-1.6868 IS DISTORTING EXCESSIVELY.
   ELEMENT SPECIMEN-1.6869 IS DISTORTING EXCESSIVELY.
   ELEMENT SPECIMEN-1.6870 IS DISTORTING EXCESSIVELY.
   ELEMENT SPECIMEN-1.6871 IS DISTORTING EXCESSIVELY.
   ELEMENT SPECIMEN-1.6872 IS DISTORTING EXCESSIVELY.
   ELEMENT SPECIMEN-1.7090 IS DISTORTING EXCESSIVELY.
   ELEMENT SPECIMEN-1.7092 IS DISTORTING EXCESSIVELY.
   ELEMENT SPECIMEN-1.7094 IS DISTORTING EXCESSIVELY.
   ELEMENT SPECIMEN-1.7095 IS DISTORTING EXCESSIVELY.
   ELEMENT SPECIMEN-1.7096 IS DISTORTING EXCESSIVELY.
   ELEMENT SPECIMEN-1.7153 IS DISTORTING EXCESSIVELY.
   ELEMENT SPECIMEN-1.7154 IS DISTORTING EXCESSIVELY.
   ELEMENT SPECIMEN-1.7155 IS DISTORTING EXCESSIVELY.
   ELEMENT SPECIMEN-1.7156 IS DISTORTING EXCESSIVELY.
   ELEMENT SPECIMEN-1.7157 IS DISTORTING EXCESSIVELY.
   ELEMENT SPECIMEN-1.7385 IS DISTORTING EXCESSIVELY.
   ELEMENT SPECIMEN-1.7387 IS DISTORTING EXCESSIVELY.
   ELEMENT SPECIMEN-1.7388 IS DISTORTING EXCESSIVELY.
   ELEMENT SPECIMEN-1.7389 IS DISTORTING EXCESSIVELY.
   ELEMENT SPECIMEN-1.7390 IS DISTORTING EXCESSIVELY.
   ELEMENT SPECIMEN-1.7391 IS DISTORTING EXCESSIVELY.
   ELEMENT SPECIMEN-1.7473 IS DISTORTING EXCESSIVELY.
   ELEMENT SPECIMEN-1.7479 IS DISTORTING EXCESSIVELY.
   ELEMENT SPECIMEN-1.7480 IS DISTORTING EXCESSIVELY.
   ELEMENT SPECIMEN-1.7513 IS DISTORTING EXCESSIVELY.
   ELEMENT SPECIMEN-1.7673 IS DISTORTING EXCESSIVELY.
   ELEMENT SPECIMEN-1.7675 IS DISTORTING EXCESSIVELY.
   ELEMENT SPECIMEN-1.7677 IS DISTORTING EXCESSIVELY.
   ELEMENT SPECIMEN-1.7679 IS DISTORTING EXCESSIVELY.
   ELEMENT SPECIMEN-1.7747 IS DISTORTING EXCESSIVELY.
   ELEMENT SPECIMEN-1.7749 IS DISTORTING EXCESSIVELY.
   ELEMENT SPECIMEN-1.7750 IS DISTORTING EXCESSIVELY.
   ELEMENT SPECIMEN-1.7751 IS DISTORTING EXCESSIVELY.
   ELEMENT SPECIMEN-1.7752 IS DISTORTING EXCESSIVELY.
   ELEMENT SPECIMEN-1.7970 IS DISTORTING EXCESSIVELY.
   ELEMENT SPECIMEN-1.7971 IS DISTORTING EXCESSIVELY.
   ELEMENT SPECIMEN-1.7973 IS DISTORTING EXCESSIVELY.
   ELEMENT SPECIMEN-1.7974 IS DISTORTING EXCESSIVELY.
   ELEMENT SPECIMEN-1.7976 IS DISTORTING EXCESSIVELY.
   ELEMENT SPECIMEN-1.8035 IS DISTORTING EXCESSIVELY.
   ELEMENT SPECIMEN-1.8036 IS DISTORTING EXCESSIVELY.
   ELEMENT SPECIMEN-1.8037 IS DISTORTING EXCESSIVELY.
   ELEMENT SPECIMEN-1.8038 IS DISTORTING EXCESSIVELY.
   ELEMENT SPECIMEN-1.8039 IS DISTORTING EXCESSIVELY.
   ELEMENT SPECIMEN-1.8230 IS DISTORTING EXCESSIVELY.
   ELEMENT SPECIMEN-1.8232 IS DISTORTING EXCESSIVELY.
   ELEMENT SPECIMEN-1.8258 IS DISTORTING EXCESSIVELY.
   ELEMENT SPECIMEN-1.8264 IS DISTORTING EXCESSIVELY.
   ELEMENT SPECIMEN-1.8317 IS DISTORTING EXCESSIVELY.
   ELEMENT SPECIMEN-1.8319 IS DISTORTING EXCESSIVELY.
   ELEMENT SPECIMEN-1.8320 IS DISTORTING EXCESSIVELY.
   ELEMENT SPECIMEN-1.8361 IS DISTORTING EXCESSIVELY.
   ELEMENT SPECIMEN-1.8362 IS DISTORTING EXCESSIVELY.
   ELEMENT SPECIMEN-1.8368 IS DISTORTING EXCESSIVELY.
   ELEMENT SPECIMEN-1.8537 IS DISTORTING EXCESSIVELY.
   ELEMENT SPECIMEN-1.8538 IS DISTORTING EXCESSIVELY.
   ELEMENT SPECIMEN-1.8541 IS DISTORTING EXCESSIVELY.
   ELEMENT SPECIMEN-1.8542 IS DISTORTING EXCESSIVELY.
   ELEMENT SPECIMEN-1.8543 IS DISTORTING EXCESSIVELY.
   ELEMENT SPECIMEN-1.8595 IS DISTORTING EXCESSIVELY.
   ELEMENT SPECIMEN-1.8597 IS DISTORTING EXCESSIVELY.
   ELEMENT SPECIMEN-1.8598 IS DISTORTING EXCESSIVELY.
   ELEMENT SPECIMEN-1.8600 IS DISTORTING EXCESSIVELY.
   ELEMENT SPECIMEN-1.8802 IS DISTORTING EXCESSIVELY.
   ELEMENT SPECIMEN-1.8804 IS DISTORTING EXCESSIVELY.
   ELEMENT SPECIMEN-1.8805 IS DISTORTING EXCESSIVELY.
   ELEMENT SPECIMEN-1.8806 IS DISTORTING EXCESSIVELY.
   ELEMENT SPECIMEN-1.8865 IS DISTORTING EXCESSIVELY.
   ELEMENT SPECIMEN-1.8866 IS DISTORTING EXCESSIVELY.
   ELEMENT SPECIMEN-1.8867 IS DISTORTING EXCESSIVELY.
   ELEMENT SPECIMEN-1.8872 IS DISTORTING EXCESSIVELY.
   ELEMENT SPECIMEN-1.8938 IS DISTORTING EXCESSIVELY.
   ELEMENT SPECIMEN-1.8940 IS DISTORTING EXCESSIVELY.
   ELEMENT SPECIMEN-1.9100 IS DISTORTING EXCESSIVELY.
   ELEMENT SPECIMEN-1.9102 IS DISTORTING EXCESSIVELY.
   ELEMENT SPECIMEN-1.9103 IS DISTORTING EXCESSIVELY.
   ELEMENT SPECIMEN-1.9161 IS DISTORTING EXCESSIVELY.
   ELEMENT SPECIMEN-1.9162 IS DISTORTING EXCESSIVELY.
   ELEMENT SPECIMEN-1.9165 IS DISTORTING EXCESSIVELY.
   ELEMENT SPECIMEN-1.9167 IS DISTORTING EXCESSIVELY.
   ELEMENT SPECIMEN-1.9168 IS DISTORTING EXCESSIVELY.
   ELEMENT SPECIMEN-1.9370 IS DISTORTING EXCESSIVELY.
   ELEMENT SPECIMEN-1.9374 IS DISTORTING EXCESSIVELY.
   ELEMENT SPECIMEN-1.9375 IS DISTORTING EXCESSIVELY.
   ELEMENT SPECIMEN-1.9376 IS DISTORTING EXCESSIVELY.
   ELEMENT SPECIMEN-1.9441 IS DISTORTING EXCESSIVELY.
   ELEMENT SPECIMEN-1.9445 IS DISTORTING EXCESSIVELY.
   ELEMENT SPECIMEN-1.9446 IS DISTORTING EXCESSIVELY.
   ELEMENT SPECIMEN-1.9447 IS DISTORTING EXCESSIVELY.
   ELEMENT SPECIMEN-1.9497 IS DISTORTING EXCESSIVELY.
   ELEMENT SPECIMEN-1.9498 IS DISTORTING EXCESSIVELY.
   ELEMENT SPECIMEN-1.9499 IS DISTORTING EXCESSIVELY.
   ELEMENT SPECIMEN-1.9500 IS DISTORTING EXCESSIVELY.
   ELEMENT SPECIMEN-1.9674 IS DISTORTING EXCESSIVELY.
   ELEMENT SPECIMEN-1.9676 IS DISTORTING EXCESSIVELY.
   ELEMENT SPECIMEN-1.9677 IS DISTORTING EXCESSIVELY.
   ELEMENT SPECIMEN-1.9678 IS DISTORTING EXCESSIVELY.
   ELEMENT SPECIMEN-1.9729 IS DISTORTING EXCESSIVELY.
   ELEMENT SPECIMEN-1.9734 IS DISTORTING EXCESSIVELY.
   ELEMENT SPECIMEN-1.9735 IS DISTORTING EXCESSIVELY.
   ELEMENT SPECIMEN-1.9953 IS DISTORTING EXCESSIVELY.
   ELEMENT SPECIMEN-1.9954 IS DISTORTING EXCESSIVELY.
   ELEMENT SPECIMEN-1.9955 IS DISTORTING EXCESSIVELY.
   ELEMENT SPECIMEN-1.9956 IS DISTORTING EXCESSIVELY.
   ELEMENT SPECIMEN-1.9959 IS DISTORTING EXCESSIVELY.
   ELEMENT SPECIMEN-1.10033 IS DISTORTING EXCESSIVELY.
   ELEMENT SPECIMEN-1.10034 IS DISTORTING EXCESSIVELY.
   ELEMENT SPECIMEN-1.10035 IS DISTORTING EXCESSIVELY.
   ELEMENT SPECIMEN-1.10037 IS DISTORTING EXCESSIVELY.
   ELEMENT SPECIMEN-1.10038 IS DISTORTING EXCESSIVELY.
   ELEMENT SPECIMEN-1.10225 IS DISTORTING EXCESSIVELY.
   ELEMENT SPECIMEN-1.10227 IS DISTORTING EXCESSIVELY.
   ELEMENT SPECIMEN-1.10229 IS DISTORTING EXCESSIVELY.
   ELEMENT SPECIMEN-1.10231 IS DISTORTING EXCESSIVELY.
   ELEMENT SPECIMEN-1.10306 IS DISTORTING EXCESSIVELY.
   ELEMENT SPECIMEN-1.10307 IS DISTORTING EXCESSIVELY.
   ELEMENT SPECIMEN-1.10312 IS DISTORTING EXCESSIVELY.
   ELEMENT SPECIMEN-1.10353 IS DISTORTING EXCESSIVELY.
   ELEMENT SPECIMEN-1.10355 IS DISTORTING EXCESSIVELY.
   ELEMENT SPECIMEN-1.10356 IS DISTORTING EXCESSIVELY.
   ELEMENT SPECIMEN-1.10357 IS DISTORTING EXCESSIVELY.
   ELEMENT SPECIMEN-1.10521 IS DISTORTING EXCESSIVELY.
   ELEMENT SPECIMEN-1.10525 IS DISTORTING EXCESSIVELY.
   ELEMENT SPECIMEN-1.10527 IS DISTORTING EXCESSIVELY.
   ELEMENT SPECIMEN-1.10569 IS DISTORTING EXCESSIVELY.
   ELEMENT SPECIMEN-1.10571 IS DISTORTING EXCESSIVELY.
   ELEMENT SPECIMEN-1.10572 IS DISTORTING EXCESSIVELY.
   ELEMENT SPECIMEN-1.10573 IS DISTORTING EXCESSIVELY.
   ELEMENT SPECIMEN-1.10574 IS DISTORTING EXCESSIVELY.
   ELEMENT SPECIMEN-1.10818 IS DISTORTING EXCESSIVELY.
   ELEMENT SPECIMEN-1.10823 IS DISTORTING EXCESSIVELY.
   ELEMENT SPECIMEN-1.10873 IS DISTORTING EXCESSIVELY.
   ELEMENT SPECIMEN-1.10874 IS DISTORTING EXCESSIVELY.
   ELEMENT SPECIMEN-1.10876 IS DISTORTING EXCESSIVELY.
   ELEMENT SPECIMEN-1.10877 IS DISTORTING EXCESSIVELY.
   ELEMENT SPECIMEN-1.11082 IS DISTORTING EXCESSIVELY.
   ELEMENT SPECIMEN-1.11084 IS DISTORTING EXCESSIVELY.
   ELEMENT SPECIMEN-1.11085 IS DISTORTING EXCESSIVELY.
   ELEMENT SPECIMEN-1.11086 IS DISTORTING EXCESSIVELY.
   ELEMENT SPECIMEN-1.11137 IS DISTORTING EXCESSIVELY.
   ELEMENT SPECIMEN-1.11140 IS DISTORTING EXCESSIVELY.
   ELEMENT SPECIMEN-1.11142 IS DISTORTING EXCESSIVELY.
   ELEMENT SPECIMEN-1.11143 IS DISTORTING EXCESSIVELY.
   ELEMENT SPECIMEN-1.11209 IS DISTORTING EXCESSIVELY.
   ELEMENT SPECIMEN-1.11210 IS DISTORTING EXCESSIVELY.
   ELEMENT SPECIMEN-1.11211 IS DISTORTING EXCESSIVELY.
   ELEMENT SPECIMEN-1.11212 IS DISTORTING EXCESSIVELY.
   ELEMENT SPECIMEN-1.11215 IS DISTORTING EXCESSIVELY.
   ELEMENT SPECIMEN-1.11365 IS DISTORTING EXCESSIVELY.
   ELEMENT SPECIMEN-1.11367 IS DISTORTING EXCESSIVELY.
   ELEMENT SPECIMEN-1.11409 IS DISTORTING EXCESSIVELY.
   ELEMENT SPECIMEN-1.11410 IS DISTORTING EXCESSIVELY.
   ELEMENT SPECIMEN-1.11413 IS DISTORTING EXCESSIVELY.
   ELEMENT SPECIMEN-1.11414 IS DISTORTING EXCESSIVELY.
   ELEMENT SPECIMEN-1.11416 IS DISTORTING EXCESSIVELY.
   ELEMENT SPECIMEN-1.11489 IS DISTORTING EXCESSIVELY.
   ELEMENT SPECIMEN-1.11490 IS DISTORTING EXCESSIVELY.
   ELEMENT SPECIMEN-1.11491 IS DISTORTING EXCESSIVELY.
   ELEMENT SPECIMEN-1.11492 IS DISTORTING EXCESSIVELY.
   ELEMENT SPECIMEN-1.11493 IS DISTORTING EXCESSIVELY.
   ELEMENT SPECIMEN-1.11494 IS DISTORTING EXCESSIVELY.
   ELEMENT SPECIMEN-1.11495 IS DISTORTING EXCESSIVELY.
   ELEMENT SPECIMEN-1.11660 IS DISTORTING EXCESSIVELY.
   ELEMENT SPECIMEN-1.11661 IS DISTORTING EXCESSIVELY.
   ELEMENT SPECIMEN-1.11698 IS DISTORTING EXCESSIVELY.
   ELEMENT SPECIMEN-1.11699 IS DISTORTING EXCESSIVELY.
   ELEMENT SPECIMEN-1.11700 IS DISTORTING EXCESSIVELY.
   ELEMENT SPECIMEN-1.11730 IS DISTORTING EXCESSIVELY.
   ELEMENT SPECIMEN-1.11732 IS DISTORTING EXCESSIVELY.
   ELEMENT SPECIMEN-1.11733 IS DISTORTING EXCESSIVELY.
   ELEMENT SPECIMEN-1.11734 IS DISTORTING EXCESSIVELY.
   ELEMENT SPECIMEN-1.11735 IS DISTORTING EXCESSIVELY.
   ELEMENT SPECIMEN-1.11736 IS DISTORTING EXCESSIVELY.
   ELEMENT SPECIMEN-1.1690 IS DISTORTING EXCESSIVELY.
   ELEMENT SPECIMEN-1.1692 IS DISTORTING EXCESSIVELY.
   ELEMENT SPECIMEN-1.1693 IS DISTORTING EXCESSIVELY.
   ELEMENT SPECIMEN-1.1713 IS DISTORTING EXCESSIVELY.
   ELEMENT SPECIMEN-1.1715 IS DISTORTING EXCESSIVELY.
   ELEMENT SPECIMEN-1.1717 IS DISTORTING EXCESSIVELY.
   ELEMENT SPECIMEN-1.1718 IS DISTORTING EXCESSIVELY.
   ELEMENT SPECIMEN-1.1720 IS DISTORTING EXCESSIVELY.
   ELEMENT SPECIMEN-1.1737 IS DISTORTING EXCESSIVELY.
   ELEMENT SPECIMEN-1.1738 IS DISTORTING EXCESSIVELY.
   ELEMENT SPECIMEN-1.1739 IS DISTORTING EXCESSIVELY.
   ELEMENT SPECIMEN-1.1740 IS DISTORTING EXCESSIVELY.
   ELEMENT SPECIMEN-1.1741 IS DISTORTING EXCESSIVELY.
   ELEMENT SPECIMEN-1.1742 IS DISTORTING EXCESSIVELY.
   ELEMENT SPECIMEN-1.1744 IS DISTORTING EXCESSIVELY.
   ELEMENT SPECIMEN-1.1777 IS DISTORTING EXCESSIVELY.
   ELEMENT SPECIMEN-1.1784 IS DISTORTING EXCESSIVELY.
   ELEMENT SPECIMEN-1.1801 IS DISTORTING EXCESSIVELY.
   ELEMENT SPECIMEN-1.1802 IS DISTORTING EXCESSIVELY.
   ELEMENT SPECIMEN-1.1803 IS DISTORTING EXCESSIVELY.
   ELEMENT SPECIMEN-1.1804 IS DISTORTING EXCESSIVELY.
   ELEMENT SPECIMEN-1.1805 IS DISTORTING EXCESSIVELY.
   ELEMENT SPECIMEN-1.1970 IS DISTORTING EXCESSIVELY.
   ELEMENT SPECIMEN-1.1972 IS DISTORTING EXCESSIVELY.
   ELEMENT SPECIMEN-1.1973 IS DISTORTING EXCESSIVELY.
   ELEMENT SPECIMEN-1.1974 IS DISTORTING EXCESSIVELY.
   ELEMENT SPECIMEN-1.1975 IS DISTORTING EXCESSIVELY.
   ELEMENT SPECIMEN-1.1976 IS DISTORTING EXCESSIVELY.
   ELEMENT SPECIMEN-1.2002 IS DISTORTING EXCESSIVELY.
   ELEMENT SPECIMEN-1.2003 IS DISTORTING EXCESSIVELY.
   ELEMENT SPECIMEN-1.2004 IS DISTORTING EXCESSIVELY.
   ELEMENT SPECIMEN-1.2005 IS DISTORTING EXCESSIVELY.
   ELEMENT SPECIMEN-1.2008 IS DISTORTING EXCESSIVELY.
   ELEMENT SPECIMEN-1.2033 IS DISTORTING EXCESSIVELY.
   ELEMENT SPECIMEN-1.2034 IS DISTORTING EXCESSIVELY.
   ELEMENT SPECIMEN-1.2039 IS DISTORTING EXCESSIVELY.
   ELEMENT SPECIMEN-1.2040 IS DISTORTING EXCESSIVELY.
   ELEMENT SPECIMEN-1.2065 IS DISTORTING EXCESSIVELY.
   ELEMENT SPECIMEN-1.2066 IS DISTORTING EXCESSIVELY.
   ELEMENT SPECIMEN-1.2070 IS DISTORTING EXCESSIVELY.
   ELEMENT SPECIMEN-1.2071 IS DISTORTING EXCESSIVELY.
   ELEMENT SPECIMEN-1.2083 IS DISTORTING EXCESSIVELY.
   ELEMENT SPECIMEN-1.2084 IS DISTORTING EXCESSIVELY.
   ELEMENT SPECIMEN-1.2085 IS DISTORTING EXCESSIVELY.
   ELEMENT SPECIMEN-1.2086 IS DISTORTING EXCESSIVELY.
   ELEMENT SPECIMEN-1.2087 IS DISTORTING EXCESSIVELY.
   ELEMENT SPECIMEN-1.2088 IS DISTORTING EXCESSIVELY.
   ELEMENT SPECIMEN-1.2266 IS DISTORTING EXCESSIVELY.
   ELEMENT SPECIMEN-1.2267 IS DISTORTING EXCESSIVELY.
   ELEMENT SPECIMEN-1.2268 IS DISTORTING EXCESSIVELY.
   ELEMENT SPECIMEN-1.2271 IS DISTORTING EXCESSIVELY.
   ELEMENT SPECIMEN-1.2272 IS DISTORTING EXCESSIVELY.
   ELEMENT SPECIMEN-1.2297 IS DISTORTING EXCESSIVELY.
   ELEMENT SPECIMEN-1.2298 IS DISTORTING EXCESSIVELY.
   ELEMENT SPECIMEN-1.2299 IS DISTORTING EXCESSIVELY.
   ELEMENT SPECIMEN-1.2300 IS DISTORTING EXCESSIVELY.
   ELEMENT SPECIMEN-1.2302 IS DISTORTING EXCESSIVELY.
   ELEMENT SPECIMEN-1.2330 IS DISTORTING EXCESSIVELY.
   ELEMENT SPECIMEN-1.2332 IS DISTORTING EXCESSIVELY.
   ELEMENT SPECIMEN-1.2333 IS DISTORTING EXCESSIVELY.
   ELEMENT SPECIMEN-1.2334 IS DISTORTING EXCESSIVELY.
   ELEMENT SPECIMEN-1.2335 IS DISTORTING EXCESSIVELY.
   ELEMENT SPECIMEN-1.2336 IS DISTORTING EXCESSIVELY.
   ELEMENT SPECIMEN-1.2355 IS DISTORTING EXCESSIVELY.
   ELEMENT SPECIMEN-1.2356 IS DISTORTING EXCESSIVELY.
   ELEMENT SPECIMEN-1.2357 IS DISTORTING EXCESSIVELY.
   ELEMENT SPECIMEN-1.2358 IS DISTORTING EXCESSIVELY.
   ELEMENT SPECIMEN-1.2359 IS DISTORTING EXCESSIVELY.
   ELEMENT SPECIMEN-1.2360 IS DISTORTING EXCESSIVELY.
   ELEMENT SPECIMEN-1.2545 IS DISTORTING EXCESSIVELY.
   ELEMENT SPECIMEN-1.2547 IS DISTORTING EXCESSIVELY.
   ELEMENT SPECIMEN-1.2549 IS DISTORTING EXCESSIVELY.
   ELEMENT SPECIMEN-1.2577 IS DISTORTING EXCESSIVELY.
   ELEMENT SPECIMEN-1.2578 IS DISTORTING EXCESSIVELY.
   ELEMENT SPECIMEN-1.2584 IS DISTORTING EXCESSIVELY.
   ELEMENT SPECIMEN-1.2594 IS DISTORTING EXCESSIVELY.
   ELEMENT SPECIMEN-1.2598 IS DISTORTING EXCESSIVELY.
   ELEMENT SPECIMEN-1.2600 IS DISTORTING EXCESSIVELY.
   ELEMENT SPECIMEN-1.2625 IS DISTORTING EXCESSIVELY.
   ELEMENT SPECIMEN-1.2626 IS DISTORTING EXCESSIVELY.
   ELEMENT SPECIMEN-1.2630 IS DISTORTING EXCESSIVELY.
   ELEMENT SPECIMEN-1.2631 IS DISTORTING EXCESSIVELY.
   ELEMENT SPECIMEN-1.2643 IS DISTORTING EXCESSIVELY.
   ELEMENT SPECIMEN-1.2644 IS DISTORTING EXCESSIVELY.
   ELEMENT SPECIMEN-1.2645 IS DISTORTING EXCESSIVELY.
   ELEMENT SPECIMEN-1.2647 IS DISTORTING EXCESSIVELY.
   ELEMENT SPECIMEN-1.2826 IS DISTORTING EXCESSIVELY.
   ELEMENT SPECIMEN-1.2830 IS DISTORTING EXCESSIVELY.
   ELEMENT SPECIMEN-1.2832 IS DISTORTING EXCESSIVELY.
   ELEMENT SPECIMEN-1.2849 IS DISTORTING EXCESSIVELY.
   ELEMENT SPECIMEN-1.2850 IS DISTORTING EXCESSIVELY.
   ELEMENT SPECIMEN-1.2852 IS DISTORTING EXCESSIVELY.
   ELEMENT SPECIMEN-1.2853 IS DISTORTING EXCESSIVELY.
   ELEMENT SPECIMEN-1.2854 IS DISTORTING EXCESSIVELY.
   ELEMENT SPECIMEN-1.2855 IS DISTORTING EXCESSIVELY.
   ELEMENT SPECIMEN-1.2882 IS DISTORTING EXCESSIVELY.
   ELEMENT SPECIMEN-1.2883 IS DISTORTING EXCESSIVELY.
   ELEMENT SPECIMEN-1.2884 IS DISTORTING EXCESSIVELY.
   ELEMENT SPECIMEN-1.2887 IS DISTORTING EXCESSIVELY.
   ELEMENT SPECIMEN-1.2913 IS DISTORTING EXCESSIVELY.
   ELEMENT SPECIMEN-1.2915 IS DISTORTING EXCESSIVELY.
   ELEMENT SPECIMEN-1.2924 IS DISTORTING EXCESSIVELY.
   ELEMENT SPECIMEN-1.2925 IS DISTORTING EXCESSIVELY.
   ELEMENT SPECIMEN-1.2928 IS DISTORTING EXCESSIVELY.
   ELEMENT SPECIMEN-1.2953 IS DISTORTING EXCESSIVELY.
   ELEMENT SPECIMEN-1.2956 IS DISTORTING EXCESSIVELY.
   ELEMENT SPECIMEN-1.3106 IS DISTORTING EXCESSIVELY.
   ELEMENT SPECIMEN-1.3110 IS DISTORTING EXCESSIVELY.
   ELEMENT SPECIMEN-1.3111 IS DISTORTING EXCESSIVELY.
   ELEMENT SPECIMEN-1.3134 IS DISTORTING EXCESSIVELY.
   ELEMENT SPECIMEN-1.3135 IS DISTORTING EXCESSIVELY.
   ELEMENT SPECIMEN-1.3136 IS DISTORTING EXCESSIVELY.
   ELEMENT SPECIMEN-1.3154 IS DISTORTING EXCESSIVELY.
   ELEMENT SPECIMEN-1.3155 IS DISTORTING EXCESSIVELY.
   ELEMENT SPECIMEN-1.3158 IS DISTORTING EXCESSIVELY.
   ELEMENT SPECIMEN-1.3159 IS DISTORTING EXCESSIVELY.
   ELEMENT SPECIMEN-1.3160 IS DISTORTING EXCESSIVELY.
   ELEMENT SPECIMEN-1.3187 IS DISTORTING EXCESSIVELY.
   ELEMENT SPECIMEN-1.3189 IS DISTORTING EXCESSIVELY.
   ELEMENT SPECIMEN-1.3190 IS DISTORTING EXCESSIVELY.
   ELEMENT SPECIMEN-1.3191 IS DISTORTING EXCESSIVELY.
   ELEMENT SPECIMEN-1.3192 IS DISTORTING EXCESSIVELY.
   ELEMENT SPECIMEN-1.3217 IS DISTORTING EXCESSIVELY.
   ELEMENT SPECIMEN-1.3220 IS DISTORTING EXCESSIVELY.
   ELEMENT SPECIMEN-1.3222 IS DISTORTING EXCESSIVELY.
   ELEMENT SPECIMEN-1.3395 IS DISTORTING EXCESSIVELY.
   ELEMENT SPECIMEN-1.3397 IS DISTORTING EXCESSIVELY.
   ELEMENT SPECIMEN-1.3398 IS DISTORTING EXCESSIVELY.
   ELEMENT SPECIMEN-1.3399 IS DISTORTING EXCESSIVELY.
   ELEMENT SPECIMEN-1.3400 IS DISTORTING EXCESSIVELY.
   ELEMENT SPECIMEN-1.3417 IS DISTORTING EXCESSIVELY.
   ELEMENT SPECIMEN-1.3419 IS DISTORTING EXCESSIVELY.
   ELEMENT SPECIMEN-1.3420 IS DISTORTING EXCESSIVELY.
   ELEMENT SPECIMEN-1.3421 IS DISTORTING EXCESSIVELY.
   ELEMENT SPECIMEN-1.3422 IS DISTORTING EXCESSIVELY.
   ELEMENT SPECIMEN-1.3423 IS DISTORTING EXCESSIVELY.
   ELEMENT SPECIMEN-1.3457 IS DISTORTING EXCESSIVELY.
   ELEMENT SPECIMEN-1.3458 IS DISTORTING EXCESSIVELY.
   ELEMENT SPECIMEN-1.3459 IS DISTORTING EXCESSIVELY.
   ELEMENT SPECIMEN-1.3461 IS DISTORTING EXCESSIVELY.
   ELEMENT SPECIMEN-1.3462 IS DISTORTING EXCESSIVELY.
   ELEMENT SPECIMEN-1.3482 IS DISTORTING EXCESSIVELY.
   ELEMENT SPECIMEN-1.3483 IS DISTORTING EXCESSIVELY.
   ELEMENT SPECIMEN-1.3497 IS DISTORTING EXCESSIVELY.
   ELEMENT SPECIMEN-1.3498 IS DISTORTING EXCESSIVELY.
   ELEMENT SPECIMEN-1.3499 IS DISTORTING EXCESSIVELY.
   ELEMENT SPECIMEN-1.3500 IS DISTORTING EXCESSIVELY.
   ELEMENT SPECIMEN-1.3504 IS DISTORTING EXCESSIVELY.
   ELEMENT SPECIMEN-1.3674 IS DISTORTING EXCESSIVELY.
   ELEMENT SPECIMEN-1.3675 IS DISTORTING EXCESSIVELY.
   ELEMENT SPECIMEN-1.3676 IS DISTORTING EXCESSIVELY.
   ELEMENT SPECIMEN-1.3680 IS DISTORTING EXCESSIVELY.
   ELEMENT SPECIMEN-1.3706 IS DISTORTING EXCESSIVELY.
   ELEMENT SPECIMEN-1.3707 IS DISTORTING EXCESSIVELY.
   ELEMENT SPECIMEN-1.3708 IS DISTORTING EXCESSIVELY.
   ELEMENT SPECIMEN-1.3712 IS DISTORTING EXCESSIVELY.
   ELEMENT SPECIMEN-1.3730 IS DISTORTING EXCESSIVELY.
   ELEMENT SPECIMEN-1.3731 IS DISTORTING EXCESSIVELY.
   ELEMENT SPECIMEN-1.3732 IS DISTORTING EXCESSIVELY.
   ELEMENT SPECIMEN-1.3733 IS DISTORTING EXCESSIVELY.
   ELEMENT SPECIMEN-1.3734 IS DISTORTING EXCESSIVELY.
   ELEMENT SPECIMEN-1.3735 IS DISTORTING EXCESSIVELY.
   ELEMENT SPECIMEN-1.3736 IS DISTORTING EXCESSIVELY.
   ELEMENT SPECIMEN-1.3761 IS DISTORTING EXCESSIVELY.
   ELEMENT SPECIMEN-1.3767 IS DISTORTING EXCESSIVELY.
   ELEMENT SPECIMEN-1.3768 IS DISTORTING EXCESSIVELY.
   ELEMENT SPECIMEN-1.3788 IS DISTORTING EXCESSIVELY.
   ELEMENT SPECIMEN-1.3789 IS DISTORTING EXCESSIVELY.
   ELEMENT SPECIMEN-1.3802 IS DISTORTING EXCESSIVELY.
   ELEMENT SPECIMEN-1.3805 IS DISTORTING EXCESSIVELY.
   ELEMENT SPECIMEN-1.3808 IS DISTORTING EXCESSIVELY.
   ELEMENT SPECIMEN-1.3977 IS DISTORTING EXCESSIVELY.
   ELEMENT SPECIMEN-1.3980 IS DISTORTING EXCESSIVELY.
   ELEMENT SPECIMEN-1.3982 IS DISTORTING EXCESSIVELY.
   ELEMENT SPECIMEN-1.3983 IS DISTORTING EXCESSIVELY.
   ELEMENT SPECIMEN-1.4010 IS DISTORTING EXCESSIVELY.
   ELEMENT SPECIMEN-1.4011 IS DISTORTING EXCESSIVELY.
   ELEMENT SPECIMEN-1.4013 IS DISTORTING EXCESSIVELY.
   ELEMENT SPECIMEN-1.4014 IS DISTORTING EXCESSIVELY.
   ELEMENT SPECIMEN-1.4015 IS DISTORTING EXCESSIVELY.
   ELEMENT SPECIMEN-1.4035 IS DISTORTING EXCESSIVELY.
   ELEMENT SPECIMEN-1.4037 IS DISTORTING EXCESSIVELY.
   ELEMENT SPECIMEN-1.4038 IS DISTORTING EXCESSIVELY.
   ELEMENT SPECIMEN-1.4039 IS DISTORTING EXCESSIVELY.
   ELEMENT SPECIMEN-1.4040 IS DISTORTING EXCESSIVELY.
   ELEMENT SPECIMEN-1.4066 IS DISTORTING EXCESSIVELY.
   ELEMENT SPECIMEN-1.4067 IS DISTORTING EXCESSIVELY.
   ELEMENT SPECIMEN-1.4071 IS DISTORTING EXCESSIVELY.
   ELEMENT SPECIMEN-1.4090 IS DISTORTING EXCESSIVELY.
   ELEMENT SPECIMEN-1.4093 IS DISTORTING EXCESSIVELY.
   ELEMENT SPECIMEN-1.4095 IS DISTORTING EXCESSIVELY.
   ELEMENT SPECIMEN-1.4250 IS DISTORTING EXCESSIVELY.
   ELEMENT SPECIMEN-1.4251 IS DISTORTING EXCESSIVELY.
   ELEMENT SPECIMEN-1.4255 IS DISTORTING EXCESSIVELY.
   ELEMENT SPECIMEN-1.4273 IS DISTORTING EXCESSIVELY.
   ELEMENT SPECIMEN-1.4274 IS DISTORTING EXCESSIVELY.
   ELEMENT SPECIMEN-1.4276 IS DISTORTING EXCESSIVELY.
   ELEMENT SPECIMEN-1.4277 IS DISTORTING EXCESSIVELY.
   ELEMENT SPECIMEN-1.4278 IS DISTORTING EXCESSIVELY.
   ELEMENT SPECIMEN-1.4280 IS DISTORTING EXCESSIVELY.
   ELEMENT SPECIMEN-1.4305 IS DISTORTING EXCESSIVELY.
   ELEMENT SPECIMEN-1.4306 IS DISTORTING EXCESSIVELY.
   ELEMENT SPECIMEN-1.4307 IS DISTORTING EXCESSIVELY.
   ELEMENT SPECIMEN-1.4309 IS DISTORTING EXCESSIVELY.
   ELEMENT SPECIMEN-1.4310 IS DISTORTING EXCESSIVELY.
   ELEMENT SPECIMEN-1.4311 IS DISTORTING EXCESSIVELY.
   ELEMENT SPECIMEN-1.4329 IS DISTORTING EXCESSIVELY.
   ELEMENT SPECIMEN-1.4336 IS DISTORTING EXCESSIVELY.
   ELEMENT SPECIMEN-1.4349 IS DISTORTING EXCESSIVELY.
   ELEMENT SPECIMEN-1.4351 IS DISTORTING EXCESSIVELY.
   ELEMENT SPECIMEN-1.4352 IS DISTORTING EXCESSIVELY.
   ELEMENT SPECIMEN-1.4378 IS DISTORTING EXCESSIVELY.
   ELEMENT SPECIMEN-1.4380 IS DISTORTING EXCESSIVELY.
   ELEMENT SPECIMEN-1.4525 IS DISTORTING EXCESSIVELY.
   ELEMENT SPECIMEN-1.4527 IS DISTORTING EXCESSIVELY.
   ELEMENT SPECIMEN-1.4554 IS DISTORTING EXCESSIVELY.
   ELEMENT SPECIMEN-1.4555 IS DISTORTING EXCESSIVELY.
   ELEMENT SPECIMEN-1.4556 IS DISTORTING EXCESSIVELY.
   ELEMENT SPECIMEN-1.4557 IS DISTORTING EXCESSIVELY.
   ELEMENT SPECIMEN-1.4577 IS DISTORTING EXCESSIVELY.
   ELEMENT SPECIMEN-1.4578 IS DISTORTING EXCESSIVELY.
   ELEMENT SPECIMEN-1.4581 IS DISTORTING EXCESSIVELY.
   ELEMENT SPECIMEN-1.4582 IS DISTORTING EXCESSIVELY.
   ELEMENT SPECIMEN-1.4583 IS DISTORTING EXCESSIVELY.
   ELEMENT SPECIMEN-1.4604 IS DISTORTING EXCESSIVELY.
   ELEMENT SPECIMEN-1.4605 IS DISTORTING EXCESSIVELY.
   ELEMENT SPECIMEN-1.4607 IS DISTORTING EXCESSIVELY.
   ELEMENT SPECIMEN-1.4635 IS DISTORTING EXCESSIVELY.
   ELEMENT SPECIMEN-1.4636 IS DISTORTING EXCESSIVELY.
   ELEMENT SPECIMEN-1.4638 IS DISTORTING EXCESSIVELY.
   ELEMENT SPECIMEN-1.4639 IS DISTORTING EXCESSIVELY.
   ELEMENT SPECIMEN-1.4665 IS DISTORTING EXCESSIVELY.
   ELEMENT SPECIMEN-1.4825 IS DISTORTING EXCESSIVELY.
   ELEMENT SPECIMEN-1.4826 IS DISTORTING EXCESSIVELY.
   ELEMENT SPECIMEN-1.4829 IS DISTORTING EXCESSIVELY.
   ELEMENT SPECIMEN-1.4831 IS DISTORTING EXCESSIVELY.
   ELEMENT SPECIMEN-1.4832 IS DISTORTING EXCESSIVELY.
   ELEMENT SPECIMEN-1.4841 IS DISTORTING EXCESSIVELY.
   ELEMENT SPECIMEN-1.4842 IS DISTORTING EXCESSIVELY.
   ELEMENT SPECIMEN-1.4844 IS DISTORTING EXCESSIVELY.
   ELEMENT SPECIMEN-1.4845 IS DISTORTING EXCESSIVELY.
   ELEMENT SPECIMEN-1.4846 IS DISTORTING EXCESSIVELY.
   ELEMENT SPECIMEN-1.4847 IS DISTORTING EXCESSIVELY.
   ELEMENT SPECIMEN-1.4848 IS DISTORTING EXCESSIVELY.
   ELEMENT SPECIMEN-1.4865 IS DISTORTING EXCESSIVELY.
   ELEMENT SPECIMEN-1.4867 IS DISTORTING EXCESSIVELY.
   ELEMENT SPECIMEN-1.4870 IS DISTORTING EXCESSIVELY.
   ELEMENT SPECIMEN-1.4872 IS DISTORTING EXCESSIVELY.
   ELEMENT SPECIMEN-1.4905 IS DISTORTING EXCESSIVELY.
   ELEMENT SPECIMEN-1.4907 IS DISTORTING EXCESSIVELY.
   ELEMENT SPECIMEN-1.4908 IS DISTORTING EXCESSIVELY.
   ELEMENT SPECIMEN-1.4921 IS DISTORTING EXCESSIVELY.
   ELEMENT SPECIMEN-1.4922 IS DISTORTING EXCESSIVELY.
   ELEMENT SPECIMEN-1.4923 IS DISTORTING EXCESSIVELY.
   ELEMENT SPECIMEN-1.4924 IS DISTORTING EXCESSIVELY.
   ELEMENT SPECIMEN-1.4925 IS DISTORTING EXCESSIVELY.
   ELEMENT SPECIMEN-1.4945 IS DISTORTING EXCESSIVELY.
   ELEMENT SPECIMEN-1.4948 IS DISTORTING EXCESSIVELY.
   ELEMENT SPECIMEN-1.5114 IS DISTORTING EXCESSIVELY.
   ELEMENT SPECIMEN-1.5118 IS DISTORTING EXCESSIVELY.
   ELEMENT SPECIMEN-1.5149 IS DISTORTING EXCESSIVELY.
   ELEMENT SPECIMEN-1.5150 IS DISTORTING EXCESSIVELY.
   ELEMENT SPECIMEN-1.5153 IS DISTORTING EXCESSIVELY.
   ELEMENT SPECIMEN-1.5154 IS DISTORTING EXCESSIVELY.
   ELEMENT SPECIMEN-1.5155 IS DISTORTING EXCESSIVELY.
   ELEMENT SPECIMEN-1.5159 IS DISTORTING EXCESSIVELY.
   ELEMENT SPECIMEN-1.5185 IS DISTORTING EXCESSIVELY.
   ELEMENT SPECIMEN-1.5186 IS DISTORTING EXCESSIVELY.
   ELEMENT SPECIMEN-1.5187 IS DISTORTING EXCESSIVELY.
   ELEMENT SPECIMEN-1.5188 IS DISTORTING EXCESSIVELY.
   ELEMENT SPECIMEN-1.5189 IS DISTORTING EXCESSIVELY.
   ELEMENT SPECIMEN-1.5190 IS DISTORTING EXCESSIVELY.
   ELEMENT SPECIMEN-1.5191 IS DISTORTING EXCESSIVELY.
   ELEMENT SPECIMEN-1.5217 IS DISTORTING EXCESSIVELY.
   ELEMENT SPECIMEN-1.5220 IS DISTORTING EXCESSIVELY.
   ELEMENT SPECIMEN-1.5223 IS DISTORTING EXCESSIVELY.
   ELEMENT SPECIMEN-1.5402 IS DISTORTING EXCESSIVELY.
   ELEMENT SPECIMEN-1.5405 IS DISTORTING EXCESSIVELY.
   ELEMENT SPECIMEN-1.5406 IS DISTORTING EXCESSIVELY.
   ELEMENT SPECIMEN-1.5408 IS DISTORTING EXCESSIVELY.
   ELEMENT SPECIMEN-1.5433 IS DISTORTING EXCESSIVELY.
   ELEMENT SPECIMEN-1.5434 IS DISTORTING EXCESSIVELY.
   ELEMENT SPECIMEN-1.5435 IS DISTORTING EXCESSIVELY.
   ELEMENT SPECIMEN-1.5439 IS DISTORTING EXCESSIVELY.
   ELEMENT SPECIMEN-1.5449 IS DISTORTING EXCESSIVELY.
   ELEMENT SPECIMEN-1.5452 IS DISTORTING EXCESSIVELY.
   ELEMENT SPECIMEN-1.5454 IS DISTORTING EXCESSIVELY.
   ELEMENT SPECIMEN-1.5456 IS DISTORTING EXCESSIVELY.
   ELEMENT SPECIMEN-1.5473 IS DISTORTING EXCESSIVELY.
   ELEMENT SPECIMEN-1.5474 IS DISTORTING EXCESSIVELY.
   ELEMENT SPECIMEN-1.5478 IS DISTORTING EXCESSIVELY.
   ELEMENT SPECIMEN-1.5480 IS DISTORTING EXCESSIVELY.
   ELEMENT SPECIMEN-1.5505 IS DISTORTING EXCESSIVELY.
   ELEMENT SPECIMEN-1.5508 IS DISTORTING EXCESSIVELY.
   ELEMENT SPECIMEN-1.5511 IS DISTORTING EXCESSIVELY.
   ELEMENT SPECIMEN-1.5512 IS DISTORTING EXCESSIVELY.
   ELEMENT SPECIMEN-1.5665 IS DISTORTING EXCESSIVELY.
   ELEMENT SPECIMEN-1.5667 IS DISTORTING EXCESSIVELY.
   ELEMENT SPECIMEN-1.5669 IS DISTORTING EXCESSIVELY.
   ELEMENT SPECIMEN-1.5671 IS DISTORTING EXCESSIVELY.
   ELEMENT SPECIMEN-1.5699 IS DISTORTING EXCESSIVELY.
   ELEMENT SPECIMEN-1.5700 IS DISTORTING EXCESSIVELY.
   ELEMENT SPECIMEN-1.5701 IS DISTORTING EXCESSIVELY.
   ELEMENT SPECIMEN-1.5703 IS DISTORTING EXCESSIVELY.
   ELEMENT SPECIMEN-1.5729 IS DISTORTING EXCESSIVELY.
   ELEMENT SPECIMEN-1.5733 IS DISTORTING EXCESSIVELY.
   ELEMENT SPECIMEN-1.5735 IS DISTORTING EXCESSIVELY.
   ELEMENT SPECIMEN-1.5746 IS DISTORTING EXCESSIVELY.
   ELEMENT SPECIMEN-1.5747 IS DISTORTING EXCESSIVELY.
   ELEMENT SPECIMEN-1.5752 IS DISTORTING EXCESSIVELY.
   ELEMENT SPECIMEN-1.5761 IS DISTORTING EXCESSIVELY.
   ELEMENT SPECIMEN-1.5765 IS DISTORTING EXCESSIVELY.
   ELEMENT SPECIMEN-1.5766 IS DISTORTING EXCESSIVELY.
   ELEMENT SPECIMEN-1.5785 IS DISTORTING EXCESSIVELY.
   ELEMENT SPECIMEN-1.5787 IS DISTORTING EXCESSIVELY.
   ELEMENT SPECIMEN-1.5790 IS DISTORTING EXCESSIVELY.
   ELEMENT SPECIMEN-1.5954 IS DISTORTING EXCESSIVELY.
   ELEMENT SPECIMEN-1.5955 IS DISTORTING EXCESSIVELY.
   ELEMENT SPECIMEN-1.5956 IS DISTORTING EXCESSIVELY.
   ELEMENT SPECIMEN-1.5960 IS DISTORTING EXCESSIVELY.
   ELEMENT SPECIMEN-1.5985 IS DISTORTING EXCESSIVELY.
   ELEMENT SPECIMEN-1.5986 IS DISTORTING EXCESSIVELY.
   ELEMENT SPECIMEN-1.5987 IS DISTORTING EXCESSIVELY.
   ELEMENT SPECIMEN-1.5988 IS DISTORTING EXCESSIVELY.
   ELEMENT SPECIMEN-1.5990 IS DISTORTING EXCESSIVELY.
   ELEMENT SPECIMEN-1.5992 IS DISTORTING EXCESSIVELY.
   ELEMENT SPECIMEN-1.6010 IS DISTORTING EXCESSIVELY.
   ELEMENT SPECIMEN-1.6012 IS DISTORTING EXCESSIVELY.
   ELEMENT SPECIMEN-1.6013 IS DISTORTING EXCESSIVELY.
   ELEMENT SPECIMEN-1.6016 IS DISTORTING EXCESSIVELY.
   ELEMENT SPECIMEN-1.6033 IS DISTORTING EXCESSIVELY.
   ELEMENT SPECIMEN-1.6035 IS DISTORTING EXCESSIVELY.
   ELEMENT SPECIMEN-1.6037 IS DISTORTING EXCESSIVELY.
   ELEMENT SPECIMEN-1.6038 IS DISTORTING EXCESSIVELY.
   ELEMENT SPECIMEN-1.6039 IS DISTORTING EXCESSIVELY.
   ELEMENT SPECIMEN-1.6040 IS DISTORTING EXCESSIVELY.
   ELEMENT SPECIMEN-1.6065 IS DISTORTING EXCESSIVELY.
   ELEMENT SPECIMEN-1.6069 IS DISTORTING EXCESSIVELY.
   ELEMENT SPECIMEN-1.6070 IS DISTORTING EXCESSIVELY.
   ELEMENT SPECIMEN-1.6241 IS DISTORTING EXCESSIVELY.
   ELEMENT SPECIMEN-1.6245 IS DISTORTING EXCESSIVELY.
   ELEMENT SPECIMEN-1.6247 IS DISTORTING EXCESSIVELY.
   ELEMENT SPECIMEN-1.6248 IS DISTORTING EXCESSIVELY.
   ELEMENT SPECIMEN-1.6265 IS DISTORTING EXCESSIVELY.
   ELEMENT SPECIMEN-1.6266 IS DISTORTING EXCESSIVELY.
   ELEMENT SPECIMEN-1.6267 IS DISTORTING EXCESSIVELY.
   ELEMENT SPECIMEN-1.6271 IS DISTORTING EXCESSIVELY.
   ELEMENT SPECIMEN-1.6272 IS DISTORTING EXCESSIVELY.
   ELEMENT SPECIMEN-1.6291 IS DISTORTING EXCESSIVELY.
   ELEMENT SPECIMEN-1.6292 IS DISTORTING EXCESSIVELY.
   ELEMENT SPECIMEN-1.6293 IS DISTORTING EXCESSIVELY.
   ELEMENT SPECIMEN-1.6295 IS DISTORTING EXCESSIVELY.
   ELEMENT SPECIMEN-1.6296 IS DISTORTING EXCESSIVELY.
   ELEMENT SPECIMEN-1.6332 IS DISTORTING EXCESSIVELY.
   ELEMENT SPECIMEN-1.6333 IS DISTORTING EXCESSIVELY.
   ELEMENT SPECIMEN-1.6335 IS DISTORTING EXCESSIVELY.
   ELEMENT SPECIMEN-1.6353 IS DISTORTING EXCESSIVELY.
   ELEMENT SPECIMEN-1.6354 IS DISTORTING EXCESSIVELY.
   ELEMENT SPECIMEN-1.6358 IS DISTORTING EXCESSIVELY.
   ELEMENT SPECIMEN-1.6359 IS DISTORTING EXCESSIVELY.
   ELEMENT SPECIMEN-1.6360 IS DISTORTING EXCESSIVELY.
   ELEMENT SPECIMEN-1.6537 IS DISTORTING EXCESSIVELY.
   ELEMENT SPECIMEN-1.6538 IS DISTORTING EXCESSIVELY.
   ELEMENT SPECIMEN-1.6542 IS DISTORTING EXCESSIVELY.
   ELEMENT SPECIMEN-1.6562 IS DISTORTING EXCESSIVELY.
   ELEMENT SPECIMEN-1.6563 IS DISTORTING EXCESSIVELY.
   ELEMENT SPECIMEN-1.6565 IS DISTORTING EXCESSIVELY.
   ELEMENT SPECIMEN-1.6566 IS DISTORTING EXCESSIVELY.
   ELEMENT SPECIMEN-1.6568 IS DISTORTING EXCESSIVELY.
   ELEMENT SPECIMEN-1.6595 IS DISTORTING EXCESSIVELY.
   ELEMENT SPECIMEN-1.6596 IS DISTORTING EXCESSIVELY.
   ELEMENT SPECIMEN-1.6597 IS DISTORTING EXCESSIVELY.
   ELEMENT SPECIMEN-1.6600 IS DISTORTING EXCESSIVELY.
   ELEMENT SPECIMEN-1.6609 IS DISTORTING EXCESSIVELY.
   ELEMENT SPECIMEN-1.6616 IS DISTORTING EXCESSIVELY.
   ELEMENT SPECIMEN-1.6629 IS DISTORTING EXCESSIVELY.
   ELEMENT SPECIMEN-1.6631 IS DISTORTING EXCESSIVELY.
   ELEMENT SPECIMEN-1.6632 IS DISTORTING EXCESSIVELY.
   ELEMENT SPECIMEN-1.6649 IS DISTORTING EXCESSIVELY.
   ELEMENT SPECIMEN-1.6650 IS DISTORTING EXCESSIVELY.
   ELEMENT SPECIMEN-1.6655 IS DISTORTING EXCESSIVELY.
   ELEMENT SPECIMEN-1.6809 IS DISTORTING EXCESSIVELY.
   ELEMENT SPECIMEN-1.6810 IS DISTORTING EXCESSIVELY.
   ELEMENT SPECIMEN-1.6811 IS DISTORTING EXCESSIVELY.
   ELEMENT SPECIMEN-1.6815 IS DISTORTING EXCESSIVELY.
   ELEMENT SPECIMEN-1.6816 IS DISTORTING EXCESSIVELY.
   ELEMENT SPECIMEN-1.6841 IS DISTORTING EXCESSIVELY.
   ELEMENT SPECIMEN-1.6842 IS DISTORTING EXCESSIVELY.
   ELEMENT SPECIMEN-1.6843 IS DISTORTING EXCESSIVELY.
   ELEMENT SPECIMEN-1.6845 IS DISTORTING EXCESSIVELY.
   ELEMENT SPECIMEN-1.6847 IS DISTORTING EXCESSIVELY.
   ELEMENT SPECIMEN-1.6848 IS DISTORTING EXCESSIVELY.
   ELEMENT SPECIMEN-1.6881 IS DISTORTING EXCESSIVELY.
   ELEMENT SPECIMEN-1.6882 IS DISTORTING EXCESSIVELY.
   ELEMENT SPECIMEN-1.6885 IS DISTORTING EXCESSIVELY.
   ELEMENT SPECIMEN-1.6887 IS DISTORTING EXCESSIVELY.
   ELEMENT SPECIMEN-1.6888 IS DISTORTING EXCESSIVELY.
   ELEMENT SPECIMEN-1.6907 IS DISTORTING EXCESSIVELY.
   ELEMENT SPECIMEN-1.6921 IS DISTORTING EXCESSIVELY.
   ELEMENT SPECIMEN-1.6923 IS DISTORTING EXCESSIVELY.
   ELEMENT SPECIMEN-1.6924 IS DISTORTING EXCESSIVELY.
   ELEMENT SPECIMEN-1.6925 IS DISTORTING EXCESSIVELY.
   ELEMENT SPECIMEN-1.6927 IS DISTORTING EXCESSIVELY.
   ELEMENT SPECIMEN-1.6928 IS DISTORTING EXCESSIVELY.
   ELEMENT SPECIMEN-1.7113 IS DISTORTING EXCESSIVELY.
   ELEMENT SPECIMEN-1.7116 IS DISTORTING EXCESSIVELY.
   ELEMENT SPECIMEN-1.7119 IS DISTORTING EXCESSIVELY.
   ELEMENT SPECIMEN-1.7120 IS DISTORTING EXCESSIVELY.
   ELEMENT SPECIMEN-1.7138 IS DISTORTING EXCESSIVELY.
   ELEMENT SPECIMEN-1.7139 IS DISTORTING EXCESSIVELY.
   ELEMENT SPECIMEN-1.7141 IS DISTORTING EXCESSIVELY.
   ELEMENT SPECIMEN-1.7142 IS DISTORTING EXCESSIVELY.
   ELEMENT SPECIMEN-1.7143 IS DISTORTING EXCESSIVELY.
   ELEMENT SPECIMEN-1.7169 IS DISTORTING EXCESSIVELY.
   ELEMENT SPECIMEN-1.7170 IS DISTORTING EXCESSIVELY.
   ELEMENT SPECIMEN-1.7172 IS DISTORTING EXCESSIVELY.
   ELEMENT SPECIMEN-1.7174 IS DISTORTING EXCESSIVELY.
   ELEMENT SPECIMEN-1.7175 IS DISTORTING EXCESSIVELY.
   ELEMENT SPECIMEN-1.7201 IS DISTORTING EXCESSIVELY.
   ELEMENT SPECIMEN-1.7203 IS DISTORTING EXCESSIVELY.
   ELEMENT SPECIMEN-1.7204 IS DISTORTING EXCESSIVELY.
   ELEMENT SPECIMEN-1.7208 IS DISTORTING EXCESSIVELY.
   ELEMENT SPECIMEN-1.7225 IS DISTORTING EXCESSIVELY.
   ELEMENT SPECIMEN-1.7228 IS DISTORTING EXCESSIVELY.
   ELEMENT SPECIMEN-1.7230 IS DISTORTING EXCESSIVELY.
   ELEMENT SPECIMEN-1.7375 IS DISTORTING EXCESSIVELY.
   ELEMENT SPECIMEN-1.7401 IS DISTORTING EXCESSIVELY.
   ELEMENT SPECIMEN-1.7402 IS DISTORTING EXCESSIVELY.
   ELEMENT SPECIMEN-1.7403 IS DISTORTING EXCESSIVELY.
   ELEMENT SPECIMEN-1.7406 IS DISTORTING EXCESSIVELY.
   ELEMENT SPECIMEN-1.7407 IS DISTORTING EXCESSIVELY.
   ELEMENT SPECIMEN-1.7425 IS DISTORTING EXCESSIVELY.
   ELEMENT SPECIMEN-1.7426 IS DISTORTING EXCESSIVELY.
   ELEMENT SPECIMEN-1.7427 IS DISTORTING EXCESSIVELY.
   ELEMENT SPECIMEN-1.7428 IS DISTORTING EXCESSIVELY.
   ELEMENT SPECIMEN-1.7429 IS DISTORTING EXCESSIVELY.
   ELEMENT SPECIMEN-1.7430 IS DISTORTING EXCESSIVELY.
   ELEMENT SPECIMEN-1.7432 IS DISTORTING EXCESSIVELY.
   ELEMENT SPECIMEN-1.7457 IS DISTORTING EXCESSIVELY.
   ELEMENT SPECIMEN-1.7458 IS DISTORTING EXCESSIVELY.
   ELEMENT SPECIMEN-1.7460 IS DISTORTING EXCESSIVELY.
   ELEMENT SPECIMEN-1.7462 IS DISTORTING EXCESSIVELY.
   ELEMENT SPECIMEN-1.7463 IS DISTORTING EXCESSIVELY.
   ELEMENT SPECIMEN-1.7464 IS DISTORTING EXCESSIVELY.
   ELEMENT SPECIMEN-1.7489 IS DISTORTING EXCESSIVELY.
   ELEMENT SPECIMEN-1.7490 IS DISTORTING EXCESSIVELY.
   ELEMENT SPECIMEN-1.7494 IS DISTORTING EXCESSIVELY.
   ELEMENT SPECIMEN-1.7495 IS DISTORTING EXCESSIVELY.
   ELEMENT SPECIMEN-1.7666 IS DISTORTING EXCESSIVELY.
   ELEMENT SPECIMEN-1.7670 IS DISTORTING EXCESSIVELY.
   ELEMENT SPECIMEN-1.7671 IS DISTORTING EXCESSIVELY.
   ELEMENT SPECIMEN-1.7694 IS DISTORTING EXCESSIVELY.
   ELEMENT SPECIMEN-1.7695 IS DISTORTING EXCESSIVELY.
   ELEMENT SPECIMEN-1.7696 IS DISTORTING EXCESSIVELY.
   ELEMENT SPECIMEN-1.7714 IS DISTORTING EXCESSIVELY.
   ELEMENT SPECIMEN-1.7715 IS DISTORTING EXCESSIVELY.
   ELEMENT SPECIMEN-1.7718 IS DISTORTING EXCESSIVELY.
   ELEMENT SPECIMEN-1.7719 IS DISTORTING EXCESSIVELY.
   ELEMENT SPECIMEN-1.7720 IS DISTORTING EXCESSIVELY.
   ELEMENT SPECIMEN-1.7753 IS DISTORTING EXCESSIVELY.
   ELEMENT SPECIMEN-1.7754 IS DISTORTING EXCESSIVELY.
   ELEMENT SPECIMEN-1.7755 IS DISTORTING EXCESSIVELY.
   ELEMENT SPECIMEN-1.7756 IS DISTORTING EXCESSIVELY.
   ELEMENT SPECIMEN-1.7760 IS DISTORTING EXCESSIVELY.
   ELEMENT SPECIMEN-1.7785 IS DISTORTING EXCESSIVELY.
   ELEMENT SPECIMEN-1.7788 IS DISTORTING EXCESSIVELY.
   ELEMENT SPECIMEN-1.7790 IS DISTORTING EXCESSIVELY.
   ELEMENT SPECIMEN-1.7791 IS DISTORTING EXCESSIVELY.
   ELEMENT SPECIMEN-1.7792 IS DISTORTING EXCESSIVELY.
   ELEMENT SPECIMEN-1.7954 IS DISTORTING EXCESSIVELY.
   ELEMENT SPECIMEN-1.7956 IS DISTORTING EXCESSIVELY.
   ELEMENT SPECIMEN-1.7960 IS DISTORTING EXCESSIVELY.
   ELEMENT SPECIMEN-1.7985 IS DISTORTING EXCESSIVELY.
   ELEMENT SPECIMEN-1.7987 IS DISTORTING EXCESSIVELY.
   ELEMENT SPECIMEN-1.7988 IS DISTORTING EXCESSIVELY.
   ELEMENT SPECIMEN-1.7989 IS DISTORTING EXCESSIVELY.
   ELEMENT SPECIMEN-1.7990 IS DISTORTING EXCESSIVELY.
   ELEMENT SPECIMEN-1.7992 IS DISTORTING EXCESSIVELY.
   ELEMENT SPECIMEN-1.8009 IS DISTORTING EXCESSIVELY.
   ELEMENT SPECIMEN-1.8012 IS DISTORTING EXCESSIVELY.
   ELEMENT SPECIMEN-1.8013 IS DISTORTING EXCESSIVELY.
   ELEMENT SPECIMEN-1.8014 IS DISTORTING EXCESSIVELY.
   ELEMENT SPECIMEN-1.8043 IS DISTORTING EXCESSIVELY.
   ELEMENT SPECIMEN-1.8045 IS DISTORTING EXCESSIVELY.
   ELEMENT SPECIMEN-1.8058 IS DISTORTING EXCESSIVELY.
   ELEMENT SPECIMEN-1.8060 IS DISTORTING EXCESSIVELY.
   ELEMENT SPECIMEN-1.8061 IS DISTORTING EXCESSIVELY.
   ELEMENT SPECIMEN-1.8062 IS DISTORTING EXCESSIVELY.
   ELEMENT SPECIMEN-1.8083 IS DISTORTING EXCESSIVELY.
   ELEMENT SPECIMEN-1.8086 IS DISTORTING EXCESSIVELY.
   ELEMENT SPECIMEN-1.8241 IS DISTORTING EXCESSIVELY.
   ELEMENT SPECIMEN-1.8243 IS DISTORTING EXCESSIVELY.
   ELEMENT SPECIMEN-1.8245 IS DISTORTING EXCESSIVELY.
   ELEMENT SPECIMEN-1.8247 IS DISTORTING EXCESSIVELY.
   ELEMENT SPECIMEN-1.8265 IS DISTORTING EXCESSIVELY.
   ELEMENT SPECIMEN-1.8266 IS DISTORTING EXCESSIVELY.
   ELEMENT SPECIMEN-1.8268 IS DISTORTING EXCESSIVELY.
   ELEMENT SPECIMEN-1.8289 IS DISTORTING EXCESSIVELY.
   ELEMENT SPECIMEN-1.8290 IS DISTORTING EXCESSIVELY.
   ELEMENT SPECIMEN-1.8294 IS DISTORTING EXCESSIVELY.
   ELEMENT SPECIMEN-1.8321 IS DISTORTING EXCESSIVELY.
   ELEMENT SPECIMEN-1.8322 IS DISTORTING EXCESSIVELY.
   ELEMENT SPECIMEN-1.8323 IS DISTORTING EXCESSIVELY.
   ELEMENT SPECIMEN-1.8324 IS DISTORTING EXCESSIVELY.
   ELEMENT SPECIMEN-1.8325 IS DISTORTING EXCESSIVELY.
   ELEMENT SPECIMEN-1.8326 IS DISTORTING EXCESSIVELY.
   ELEMENT SPECIMEN-1.8355 IS DISTORTING EXCESSIVELY.
   ELEMENT SPECIMEN-1.8358 IS DISTORTING EXCESSIVELY.
   ELEMENT SPECIMEN-1.8360 IS DISTORTING EXCESSIVELY.
   ELEMENT SPECIMEN-1.8515 IS DISTORTING EXCESSIVELY.
   ELEMENT SPECIMEN-1.8517 IS DISTORTING EXCESSIVELY.
   ELEMENT SPECIMEN-1.8519 IS DISTORTING EXCESSIVELY.
   ELEMENT SPECIMEN-1.8520 IS DISTORTING EXCESSIVELY.
   ELEMENT SPECIMEN-1.8546 IS DISTORTING EXCESSIVELY.
   ELEMENT SPECIMEN-1.8547 IS DISTORTING EXCESSIVELY.
   ELEMENT SPECIMEN-1.8549 IS DISTORTING EXCESSIVELY.
   ELEMENT SPECIMEN-1.8550 IS DISTORTING EXCESSIVELY.
   ELEMENT SPECIMEN-1.8551 IS DISTORTING EXCESSIVELY.
   ELEMENT SPECIMEN-1.8552 IS DISTORTING EXCESSIVELY.
   ELEMENT SPECIMEN-1.8569 IS DISTORTING EXCESSIVELY.
   ELEMENT SPECIMEN-1.8570 IS DISTORTING EXCESSIVELY.
   ELEMENT SPECIMEN-1.8572 IS DISTORTING EXCESSIVELY.
   ELEMENT SPECIMEN-1.8575 IS DISTORTING EXCESSIVELY.
   ELEMENT SPECIMEN-1.8602 IS DISTORTING EXCESSIVELY.
   ELEMENT SPECIMEN-1.8603 IS DISTORTING EXCESSIVELY.
   ELEMENT SPECIMEN-1.8604 IS DISTORTING EXCESSIVELY.
   ELEMENT SPECIMEN-1.8605 IS DISTORTING EXCESSIVELY.
   ELEMENT SPECIMEN-1.8606 IS DISTORTING EXCESSIVELY.
   ELEMENT SPECIMEN-1.8607 IS DISTORTING EXCESSIVELY.
   ELEMENT SPECIMEN-1.8608 IS DISTORTING EXCESSIVELY.
   ELEMENT SPECIMEN-1.8641 IS DISTORTING EXCESSIVELY.
   ELEMENT SPECIMEN-1.8643 IS DISTORTING EXCESSIVELY.
   ELEMENT SPECIMEN-1.8644 IS DISTORTING EXCESSIVELY.
   ELEMENT SPECIMEN-1.8645 IS DISTORTING EXCESSIVELY.
   ELEMENT SPECIMEN-1.8646 IS DISTORTING EXCESSIVELY.
   ELEMENT SPECIMEN-1.8647 IS DISTORTING EXCESSIVELY.
   ELEMENT SPECIMEN-1.8810 IS DISTORTING EXCESSIVELY.
   ELEMENT SPECIMEN-1.8812 IS DISTORTING EXCESSIVELY.
   ELEMENT SPECIMEN-1.8813 IS DISTORTING EXCESSIVELY.
   ELEMENT SPECIMEN-1.8814 IS DISTORTING EXCESSIVELY.
   ELEMENT SPECIMEN-1.8815 IS DISTORTING EXCESSIVELY.
   ELEMENT SPECIMEN-1.8816 IS DISTORTING EXCESSIVELY.
   ELEMENT SPECIMEN-1.8842 IS DISTORTING EXCESSIVELY.
   ELEMENT SPECIMEN-1.8843 IS DISTORTING EXCESSIVELY.
   ELEMENT SPECIMEN-1.8844 IS DISTORTING EXCESSIVELY.
   ELEMENT SPECIMEN-1.8845 IS DISTORTING EXCESSIVELY.
   ELEMENT SPECIMEN-1.8848 IS DISTORTING EXCESSIVELY.
   ELEMENT SPECIMEN-1.8873 IS DISTORTING EXCESSIVELY.
   ELEMENT SPECIMEN-1.8874 IS DISTORTING EXCESSIVELY.
   ELEMENT SPECIMEN-1.8879 IS DISTORTING EXCESSIVELY.
   ELEMENT SPECIMEN-1.8880 IS DISTORTING EXCESSIVELY.
   ELEMENT SPECIMEN-1.8905 IS DISTORTING EXCESSIVELY.
   ELEMENT SPECIMEN-1.8906 IS DISTORTING EXCESSIVELY.
   ELEMENT SPECIMEN-1.8910 IS DISTORTING EXCESSIVELY.
   ELEMENT SPECIMEN-1.8911 IS DISTORTING EXCESSIVELY.
   ELEMENT SPECIMEN-1.8929 IS DISTORTING EXCESSIVELY.
   ELEMENT SPECIMEN-1.8930 IS DISTORTING EXCESSIVELY.
   ELEMENT SPECIMEN-1.8932 IS DISTORTING EXCESSIVELY.
   ELEMENT SPECIMEN-1.8935 IS DISTORTING EXCESSIVELY.
   ELEMENT SPECIMEN-1.9089 IS DISTORTING EXCESSIVELY.
   ELEMENT SPECIMEN-1.9090 IS DISTORTING EXCESSIVELY.
   ELEMENT SPECIMEN-1.9091 IS DISTORTING EXCESSIVELY.
   ELEMENT SPECIMEN-1.9095 IS DISTORTING EXCESSIVELY.
   ELEMENT SPECIMEN-1.9096 IS DISTORTING EXCESSIVELY.
   ELEMENT SPECIMEN-1.9121 IS DISTORTING EXCESSIVELY.
   ELEMENT SPECIMEN-1.9122 IS DISTORTING EXCESSIVELY.
   ELEMENT SPECIMEN-1.9123 IS DISTORTING EXCESSIVELY.
   ELEMENT SPECIMEN-1.9125 IS DISTORTING EXCESSIVELY.
   ELEMENT SPECIMEN-1.9127 IS DISTORTING EXCESSIVELY.
   ELEMENT SPECIMEN-1.9128 IS DISTORTING EXCESSIVELY.
   ELEMENT SPECIMEN-1.9169 IS DISTORTING EXCESSIVELY.
   ELEMENT SPECIMEN-1.9170 IS DISTORTING EXCESSIVELY.
   ELEMENT SPECIMEN-1.9171 IS DISTORTING EXCESSIVELY.
   ELEMENT SPECIMEN-1.9173 IS DISTORTING EXCESSIVELY.
   ELEMENT SPECIMEN-1.9174 IS DISTORTING EXCESSIVELY.
   ELEMENT SPECIMEN-1.9187 IS DISTORTING EXCESSIVELY.
   ELEMENT SPECIMEN-1.9201 IS DISTORTING EXCESSIVELY.
   ELEMENT SPECIMEN-1.9203 IS DISTORTING EXCESSIVELY.
   ELEMENT SPECIMEN-1.9204 IS DISTORTING EXCESSIVELY.
   ELEMENT SPECIMEN-1.9205 IS DISTORTING EXCESSIVELY.
   ELEMENT SPECIMEN-1.9207 IS DISTORTING EXCESSIVELY.
   ELEMENT SPECIMEN-1.9208 IS DISTORTING EXCESSIVELY.
   ELEMENT SPECIMEN-1.9395 IS DISTORTING EXCESSIVELY.
   ELEMENT SPECIMEN-1.9397 IS DISTORTING EXCESSIVELY.
   ELEMENT SPECIMEN-1.9398 IS DISTORTING EXCESSIVELY.
   ELEMENT SPECIMEN-1.9418 IS DISTORTING EXCESSIVELY.
   ELEMENT SPECIMEN-1.9419 IS DISTORTING EXCESSIVELY.
   ELEMENT SPECIMEN-1.9420 IS DISTORTING EXCESSIVELY.
   ELEMENT SPECIMEN-1.9425 IS DISTORTING EXCESSIVELY.
   ELEMENT SPECIMEN-1.9426 IS DISTORTING EXCESSIVELY.
   ELEMENT SPECIMEN-1.9428 IS DISTORTING EXCESSIVELY.
   ELEMENT SPECIMEN-1.9429 IS DISTORTING EXCESSIVELY.
   ELEMENT SPECIMEN-1.9430 IS DISTORTING EXCESSIVELY.
   ELEMENT SPECIMEN-1.9432 IS DISTORTING EXCESSIVELY.
   ELEMENT SPECIMEN-1.9458 IS DISTORTING EXCESSIVELY.
   ELEMENT SPECIMEN-1.9459 IS DISTORTING EXCESSIVELY.
   ELEMENT SPECIMEN-1.9479 IS DISTORTING EXCESSIVELY.
   ELEMENT SPECIMEN-1.9489 IS DISTORTING EXCESSIVELY.
   ELEMENT SPECIMEN-1.9490 IS DISTORTING EXCESSIVELY.
   ELEMENT SPECIMEN-1.9492 IS DISTORTING EXCESSIVELY.
   ELEMENT SPECIMEN-1.9493 IS DISTORTING EXCESSIVELY.
   ELEMENT SPECIMEN-1.9494 IS DISTORTING EXCESSIVELY.
   ELEMENT SPECIMEN-1.9496 IS DISTORTING EXCESSIVELY.
   ELEMENT SPECIMEN-1.9655 IS DISTORTING EXCESSIVELY.
   ELEMENT SPECIMEN-1.9681 IS DISTORTING EXCESSIVELY.
   ELEMENT SPECIMEN-1.9684 IS DISTORTING EXCESSIVELY.
   ELEMENT SPECIMEN-1.9685 IS DISTORTING EXCESSIVELY.
   ELEMENT SPECIMEN-1.9686 IS DISTORTING EXCESSIVELY.
   ELEMENT SPECIMEN-1.9687 IS DISTORTING EXCESSIVELY.
   ELEMENT SPECIMEN-1.9713 IS DISTORTING EXCESSIVELY.
   ELEMENT SPECIMEN-1.9715 IS DISTORTING EXCESSIVELY.
   ELEMENT SPECIMEN-1.9716 IS DISTORTING EXCESSIVELY.
   ELEMENT SPECIMEN-1.9717 IS DISTORTING EXCESSIVELY.
   ELEMENT SPECIMEN-1.9718 IS DISTORTING EXCESSIVELY.
   ELEMENT SPECIMEN-1.9719 IS DISTORTING EXCESSIVELY.
   ELEMENT SPECIMEN-1.9720 IS DISTORTING EXCESSIVELY.
   ELEMENT SPECIMEN-1.9753 IS DISTORTING EXCESSIVELY.
   ELEMENT SPECIMEN-1.9755 IS DISTORTING EXCESSIVELY.
   ELEMENT SPECIMEN-1.9757 IS DISTORTING EXCESSIVELY.
   ELEMENT SPECIMEN-1.9758 IS DISTORTING EXCESSIVELY.
   ELEMENT SPECIMEN-1.9760 IS DISTORTING EXCESSIVELY.
   ELEMENT SPECIMEN-1.9793 IS DISTORTING EXCESSIVELY.
   ELEMENT SPECIMEN-1.9795 IS DISTORTING EXCESSIVELY.
   ELEMENT SPECIMEN-1.9945 IS DISTORTING EXCESSIVELY.
   ELEMENT SPECIMEN-1.9946 IS DISTORTING EXCESSIVELY.
   ELEMENT SPECIMEN-1.9950 IS DISTORTING EXCESSIVELY.
   ELEMENT SPECIMEN-1.9952 IS DISTORTING EXCESSIVELY.
   ELEMENT SPECIMEN-1.9971 IS DISTORTING EXCESSIVELY.
   ELEMENT SPECIMEN-1.9972 IS DISTORTING EXCESSIVELY.
   ELEMENT SPECIMEN-1.9974 IS DISTORTING EXCESSIVELY.
   ELEMENT SPECIMEN-1.9975 IS DISTORTING EXCESSIVELY.
   ELEMENT SPECIMEN-1.9976 IS DISTORTING EXCESSIVELY.
   ELEMENT SPECIMEN-1.9993 IS DISTORTING EXCESSIVELY.
   ELEMENT SPECIMEN-1.9994 IS DISTORTING EXCESSIVELY.
   ELEMENT SPECIMEN-1.9995 IS DISTORTING EXCESSIVELY.
   ELEMENT SPECIMEN-1.9997 IS DISTORTING EXCESSIVELY.
   ELEMENT SPECIMEN-1.10000 IS DISTORTING EXCESSIVELY.
   ELEMENT SPECIMEN-1.10025 IS DISTORTING EXCESSIVELY.
   ELEMENT SPECIMEN-1.10027 IS DISTORTING EXCESSIVELY.
   ELEMENT SPECIMEN-1.10028 IS DISTORTING EXCESSIVELY.
   ELEMENT SPECIMEN-1.10029 IS DISTORTING EXCESSIVELY.
   ELEMENT SPECIMEN-1.10030 IS DISTORTING EXCESSIVELY.
   ELEMENT SPECIMEN-1.10031 IS DISTORTING EXCESSIVELY.
   ELEMENT SPECIMEN-1.10032 IS DISTORTING EXCESSIVELY.
   ELEMENT SPECIMEN-1.10066 IS DISTORTING EXCESSIVELY.
   ELEMENT SPECIMEN-1.10068 IS DISTORTING EXCESSIVELY.
   ELEMENT SPECIMEN-1.10069 IS DISTORTING EXCESSIVELY.
   ELEMENT SPECIMEN-1.10070 IS DISTORTING EXCESSIVELY.
   ELEMENT SPECIMEN-1.10071 IS DISTORTING EXCESSIVELY.
   ELEMENT SPECIMEN-1.10072 IS DISTORTING EXCESSIVELY.
   ELEMENT SPECIMEN-1.10253 IS DISTORTING EXCESSIVELY.
   ELEMENT SPECIMEN-1.10259 IS DISTORTING EXCESSIVELY.
   ELEMENT SPECIMEN-1.10260 IS DISTORTING EXCESSIVELY.
   ELEMENT SPECIMEN-1.10261 IS DISTORTING EXCESSIVELY.
   ELEMENT SPECIMEN-1.10263 IS DISTORTING EXCESSIVELY.
   ELEMENT SPECIMEN-1.10283 IS DISTORTING EXCESSIVELY.
   ELEMENT SPECIMEN-1.10284 IS DISTORTING EXCESSIVELY.
   ELEMENT SPECIMEN-1.10285 IS DISTORTING EXCESSIVELY.
   ELEMENT SPECIMEN-1.10314 IS DISTORTING EXCESSIVELY.
   ELEMENT SPECIMEN-1.10315 IS DISTORTING EXCESSIVELY.
   ELEMENT SPECIMEN-1.10316 IS DISTORTING EXCESSIVELY.
   ELEMENT SPECIMEN-1.10317 IS DISTORTING EXCESSIVELY.
   ELEMENT SPECIMEN-1.10318 IS DISTORTING EXCESSIVELY.
   ELEMENT SPECIMEN-1.10319 IS DISTORTING EXCESSIVELY.
   ELEMENT SPECIMEN-1.10320 IS DISTORTING EXCESSIVELY.
   ELEMENT SPECIMEN-1.10345 IS DISTORTING EXCESSIVELY.
   ELEMENT SPECIMEN-1.10347 IS DISTORTING EXCESSIVELY.
   ELEMENT SPECIMEN-1.10350 IS DISTORTING EXCESSIVELY.
   ELEMENT SPECIMEN-1.10510 IS DISTORTING EXCESSIVELY.
   ELEMENT SPECIMEN-1.10538 IS DISTORTING EXCESSIVELY.
   ELEMENT SPECIMEN-1.10539 IS DISTORTING EXCESSIVELY.
   ELEMENT SPECIMEN-1.10541 IS DISTORTING EXCESSIVELY.
   ELEMENT SPECIMEN-1.10544 IS DISTORTING EXCESSIVELY.
   ELEMENT SPECIMEN-1.10561 IS DISTORTING EXCESSIVELY.
   ELEMENT SPECIMEN-1.10562 IS DISTORTING EXCESSIVELY.
   ELEMENT SPECIMEN-1.10563 IS DISTORTING EXCESSIVELY.
   ELEMENT SPECIMEN-1.10564 IS DISTORTING EXCESSIVELY.
   ELEMENT SPECIMEN-1.10565 IS DISTORTING EXCESSIVELY.
   ELEMENT SPECIMEN-1.10597 IS DISTORTING EXCESSIVELY.
   ELEMENT SPECIMEN-1.10600 IS DISTORTING EXCESSIVELY.
   ELEMENT SPECIMEN-1.10601 IS DISTORTING EXCESSIVELY.
   ELEMENT SPECIMEN-1.10602 IS DISTORTING EXCESSIVELY.
   ELEMENT SPECIMEN-1.10603 IS DISTORTING EXCESSIVELY.
   ELEMENT SPECIMEN-1.10604 IS DISTORTING EXCESSIVELY.
   ELEMENT SPECIMEN-1.10608 IS DISTORTING EXCESSIVELY.
   ELEMENT SPECIMEN-1.10635 IS DISTORTING EXCESSIVELY.
   ELEMENT SPECIMEN-1.10638 IS DISTORTING EXCESSIVELY.
   ELEMENT SPECIMEN-1.10651 IS DISTORTING EXCESSIVELY.
   ELEMENT SPECIMEN-1.10795 IS DISTORTING EXCESSIVELY.
   ELEMENT SPECIMEN-1.10797 IS DISTORTING EXCESSIVELY.
   ELEMENT SPECIMEN-1.10799 IS DISTORTING EXCESSIVELY.
   ELEMENT SPECIMEN-1.10829 IS DISTORTING EXCESSIVELY.
   ELEMENT SPECIMEN-1.10830 IS DISTORTING EXCESSIVELY.
   ELEMENT SPECIMEN-1.10831 IS DISTORTING EXCESSIVELY.
   ELEMENT SPECIMEN-1.10849 IS DISTORTING EXCESSIVELY.
   ELEMENT SPECIMEN-1.10850 IS DISTORTING EXCESSIVELY.
   ELEMENT SPECIMEN-1.10853 IS DISTORTING EXCESSIVELY.
   ELEMENT SPECIMEN-1.10854 IS DISTORTING EXCESSIVELY.
   ELEMENT SPECIMEN-1.10855 IS DISTORTING EXCESSIVELY.
   ELEMENT SPECIMEN-1.10889 IS DISTORTING EXCESSIVELY.
   ELEMENT SPECIMEN-1.10890 IS DISTORTING EXCESSIVELY.
   ELEMENT SPECIMEN-1.10891 IS DISTORTING EXCESSIVELY.
   ELEMENT SPECIMEN-1.10895 IS DISTORTING EXCESSIVELY.
   ELEMENT SPECIMEN-1.10896 IS DISTORTING EXCESSIVELY.
   ELEMENT SPECIMEN-1.10923 IS DISTORTING EXCESSIVELY.
   ELEMENT SPECIMEN-1.10925 IS DISTORTING EXCESSIVELY.
   ELEMENT SPECIMEN-1.10926 IS DISTORTING EXCESSIVELY.
   ELEMENT SPECIMEN-1.10927 IS DISTORTING EXCESSIVELY.
   ELEMENT SPECIMEN-1.11080 IS DISTORTING EXCESSIVELY.
   ELEMENT SPECIMEN-1.11106 IS DISTORTING EXCESSIVELY.
   ELEMENT SPECIMEN-1.11107 IS DISTORTING EXCESSIVELY.
   ELEMENT SPECIMEN-1.11108 IS DISTORTING EXCESSIVELY.
   ELEMENT SPECIMEN-1.11111 IS DISTORTING EXCESSIVELY.
   ELEMENT SPECIMEN-1.11112 IS DISTORTING EXCESSIVELY.
   ELEMENT SPECIMEN-1.11122 IS DISTORTING EXCESSIVELY.
   ELEMENT SPECIMEN-1.11123 IS DISTORTING EXCESSIVELY.
   ELEMENT SPECIMEN-1.11124 IS DISTORTING EXCESSIVELY.
   ELEMENT SPECIMEN-1.11125 IS DISTORTING EXCESSIVELY.
   ELEMENT SPECIMEN-1.11128 IS DISTORTING EXCESSIVELY.
   ELEMENT SPECIMEN-1.11146 IS DISTORTING EXCESSIVELY.
   ELEMENT SPECIMEN-1.11149 IS DISTORTING EXCESSIVELY.
   ELEMENT SPECIMEN-1.11152 IS DISTORTING EXCESSIVELY.
   ELEMENT SPECIMEN-1.11162 IS DISTORTING EXCESSIVELY.
   ELEMENT SPECIMEN-1.11163 IS DISTORTING EXCESSIVELY.
   ELEMENT SPECIMEN-1.11165 IS DISTORTING EXCESSIVELY.
   ELEMENT SPECIMEN-1.11167 IS DISTORTING EXCESSIVELY.
   ELEMENT SPECIMEN-1.11168 IS DISTORTING EXCESSIVELY.
   ELEMENT SPECIMEN-1.11185 IS DISTORTING EXCESSIVELY.
   ELEMENT SPECIMEN-1.11190 IS DISTORTING EXCESSIVELY.
   ELEMENT SPECIMEN-1.11191 IS DISTORTING EXCESSIVELY.
   ELEMENT SPECIMEN-1.11192 IS DISTORTING EXCESSIVELY.
   ELEMENT SPECIMEN-1.11218 IS DISTORTING EXCESSIVELY.
   ELEMENT SPECIMEN-1.11386 IS DISTORTING EXCESSIVELY.
   ELEMENT SPECIMEN-1.11387 IS DISTORTING EXCESSIVELY.
   ELEMENT SPECIMEN-1.11388 IS DISTORTING EXCESSIVELY.
   ELEMENT SPECIMEN-1.11391 IS DISTORTING EXCESSIVELY.
   ELEMENT SPECIMEN-1.11401 IS DISTORTING EXCESSIVELY.
   ELEMENT SPECIMEN-1.11402 IS DISTORTING EXCESSIVELY.
   ELEMENT SPECIMEN-1.11403 IS DISTORTING EXCESSIVELY.
   ELEMENT SPECIMEN-1.11407 IS DISTORTING EXCESSIVELY.
   ELEMENT SPECIMEN-1.11408 IS DISTORTING EXCESSIVELY.
   ELEMENT SPECIMEN-1.11437 IS DISTORTING EXCESSIVELY.
   ELEMENT SPECIMEN-1.11438 IS DISTORTING EXCESSIVELY.
   ELEMENT SPECIMEN-1.11439 IS DISTORTING EXCESSIVELY.
   ELEMENT SPECIMEN-1.11449 IS DISTORTING EXCESSIVELY.
   ELEMENT SPECIMEN-1.11450 IS DISTORTING EXCESSIVELY.
   ELEMENT SPECIMEN-1.11456 IS DISTORTING EXCESSIVELY.
   ELEMENT SPECIMEN-1.11475 IS DISTORTING EXCESSIVELY.
   ELEMENT SPECIMEN-1.11476 IS DISTORTING EXCESSIVELY.
   ELEMENT SPECIMEN-1.11478 IS DISTORTING EXCESSIVELY.
   ELEMENT SPECIMEN-1.11479 IS DISTORTING EXCESSIVELY.
   ELEMENT SPECIMEN-1.11650 IS DISTORTING EXCESSIVELY.
   ELEMENT SPECIMEN-1.11654 IS DISTORTING EXCESSIVELY.
   ELEMENT SPECIMEN-1.11655 IS DISTORTING EXCESSIVELY.
   ELEMENT SPECIMEN-1.11656 IS DISTORTING EXCESSIVELY.
   ELEMENT SPECIMEN-1.11681 IS DISTORTING EXCESSIVELY.
   ELEMENT SPECIMEN-1.11683 IS DISTORTING EXCESSIVELY.
   ELEMENT SPECIMEN-1.11684 IS DISTORTING EXCESSIVELY.
   ELEMENT SPECIMEN-1.11686 IS DISTORTING EXCESSIVELY.
   ELEMENT SPECIMEN-1.11687 IS DISTORTING EXCESSIVELY.
   ELEMENT SPECIMEN-1.11688 IS DISTORTING EXCESSIVELY.
   ELEMENT SPECIMEN-1.11713 IS DISTORTING EXCESSIVELY.
   ELEMENT SPECIMEN-1.11714 IS DISTORTING EXCESSIVELY.
   ELEMENT SPECIMEN-1.11715 IS DISTORTING EXCESSIVELY.
   ELEMENT SPECIMEN-1.11716 IS DISTORTING EXCESSIVELY.
   ELEMENT SPECIMEN-1.11717 IS DISTORTING EXCESSIVELY.
   ELEMENT SPECIMEN-1.11719 IS DISTORTING EXCESSIVELY.
   ELEMENT SPECIMEN-1.11720 IS DISTORTING EXCESSIVELY.
   ELEMENT SPECIMEN-1.11769 IS DISTORTING EXCESSIVELY.
   ELEMENT SPECIMEN-1.11770 IS DISTORTING EXCESSIVELY.
   ELEMENT SPECIMEN-1.11772 IS DISTORTING EXCESSIVELY.
   ELEMENT SPECIMEN-1.11773 IS DISTORTING EXCESSIVELY.
   ELEMENT SPECIMEN-1.11774 IS DISTORTING EXCESSIVELY.
   ELEMENT SPECIMEN-1.11776 IS DISTORTING EXCESSIVELY.
   ELEMENT SPECIMEN-1.1706 IS DISTORTING EXCESSIVELY.
   ELEMENT SPECIMEN-1.1708 IS DISTORTING EXCESSIVELY.
   ELEMENT SPECIMEN-1.1709 IS DISTORTING EXCESSIVELY.
   ELEMENT SPECIMEN-1.1711 IS DISTORTING EXCESSIVELY.
   ELEMENT SPECIMEN-1.1712 IS DISTORTING EXCESSIVELY.
   ELEMENT SPECIMEN-1.1745 IS DISTORTING EXCESSIVELY.
   ELEMENT SPECIMEN-1.1746 IS DISTORTING EXCESSIVELY.
   ELEMENT SPECIMEN-1.1750 IS DISTORTING EXCESSIVELY.
   ELEMENT SPECIMEN-1.1751 IS DISTORTING EXCESSIVELY.
   ELEMENT SPECIMEN-1.1752 IS DISTORTING EXCESSIVELY.
   ELEMENT SPECIMEN-1.1761 IS DISTORTING EXCESSIVELY.
   ELEMENT SPECIMEN-1.1763 IS DISTORTING EXCESSIVELY.
   ELEMENT SPECIMEN-1.1764 IS DISTORTING EXCESSIVELY.
   ELEMENT SPECIMEN-1.1793 IS DISTORTING EXCESSIVELY.
   ELEMENT SPECIMEN-1.1794 IS DISTORTING EXCESSIVELY.
   ELEMENT SPECIMEN-1.1795 IS DISTORTING EXCESSIVELY.
   ELEMENT SPECIMEN-1.1797 IS DISTORTING EXCESSIVELY.
   ELEMENT SPECIMEN-1.1798 IS DISTORTING EXCESSIVELY.
   ELEMENT SPECIMEN-1.1799 IS DISTORTING EXCESSIVELY.
   ELEMENT SPECIMEN-1.1979 IS DISTORTING EXCESSIVELY.
   ELEMENT SPECIMEN-1.1981 IS DISTORTING EXCESSIVELY.
   ELEMENT SPECIMEN-1.1982 IS DISTORTING EXCESSIVELY.
   ELEMENT SPECIMEN-1.1983 IS DISTORTING EXCESSIVELY.
   ELEMENT SPECIMEN-1.1996 IS DISTORTING EXCESSIVELY.
   ELEMENT SPECIMEN-1.1997 IS DISTORTING EXCESSIVELY.
   ELEMENT SPECIMEN-1.1998 IS DISTORTING EXCESSIVELY.
   ELEMENT SPECIMEN-1.2017 IS DISTORTING EXCESSIVELY.
   ELEMENT SPECIMEN-1.2018 IS DISTORTING EXCESSIVELY.
   ELEMENT SPECIMEN-1.2020 IS DISTORTING EXCESSIVELY.
   ELEMENT SPECIMEN-1.2021 IS DISTORTING EXCESSIVELY.
   ELEMENT SPECIMEN-1.2022 IS DISTORTING EXCESSIVELY.
   ELEMENT SPECIMEN-1.2023 IS DISTORTING EXCESSIVELY.
   ELEMENT SPECIMEN-1.2024 IS DISTORTING EXCESSIVELY.
   ELEMENT SPECIMEN-1.2057 IS DISTORTING EXCESSIVELY.
   ELEMENT SPECIMEN-1.2058 IS DISTORTING EXCESSIVELY.
   ELEMENT SPECIMEN-1.2060 IS DISTORTING EXCESSIVELY.
   ELEMENT SPECIMEN-1.2062 IS DISTORTING EXCESSIVELY.
   ELEMENT SPECIMEN-1.2063 IS DISTORTING EXCESSIVELY.
   ELEMENT SPECIMEN-1.2098 IS DISTORTING EXCESSIVELY.
   ELEMENT SPECIMEN-1.2100 IS DISTORTING EXCESSIVELY.
   ELEMENT SPECIMEN-1.2257 IS DISTORTING EXCESSIVELY.
   ELEMENT SPECIMEN-1.2258 IS DISTORTING EXCESSIVELY.
   ELEMENT SPECIMEN-1.2259 IS DISTORTING EXCESSIVELY.
   ELEMENT SPECIMEN-1.2260 IS DISTORTING EXCESSIVELY.
   ELEMENT SPECIMEN-1.2261 IS DISTORTING EXCESSIVELY.
   ELEMENT SPECIMEN-1.2264 IS DISTORTING EXCESSIVELY.
   ELEMENT SPECIMEN-1.2289 IS DISTORTING EXCESSIVELY.
   ELEMENT SPECIMEN-1.2290 IS DISTORTING EXCESSIVELY.
   ELEMENT SPECIMEN-1.2293 IS DISTORTING EXCESSIVELY.
   ELEMENT SPECIMEN-1.2295 IS DISTORTING EXCESSIVELY.
   ELEMENT SPECIMEN-1.2296 IS DISTORTING EXCESSIVELY.
   ELEMENT SPECIMEN-1.2314 IS DISTORTING EXCESSIVELY.
   ELEMENT SPECIMEN-1.2317 IS DISTORTING EXCESSIVELY.
   ELEMENT SPECIMEN-1.2318 IS DISTORTING EXCESSIVELY.
   ELEMENT SPECIMEN-1.2319 IS DISTORTING EXCESSIVELY.
   ELEMENT SPECIMEN-1.2337 IS DISTORTING EXCESSIVELY.
   ELEMENT SPECIMEN-1.2338 IS DISTORTING EXCESSIVELY.
   ELEMENT SPECIMEN-1.2339 IS DISTORTING EXCESSIVELY.
   ELEMENT SPECIMEN-1.2340 IS DISTORTING EXCESSIVELY.
   ELEMENT SPECIMEN-1.2342 IS DISTORTING EXCESSIVELY.
   ELEMENT SPECIMEN-1.2343 IS DISTORTING EXCESSIVELY.
   ELEMENT SPECIMEN-1.2377 IS DISTORTING EXCESSIVELY.
   ELEMENT SPECIMEN-1.2380 IS DISTORTING EXCESSIVELY.
   ELEMENT SPECIMEN-1.2383 IS DISTORTING EXCESSIVELY.
   ELEMENT SPECIMEN-1.2553 IS DISTORTING EXCESSIVELY.
   ELEMENT SPECIMEN-1.2558 IS DISTORTING EXCESSIVELY.
   ELEMENT SPECIMEN-1.2573 IS DISTORTING EXCESSIVELY.
   ELEMENT SPECIMEN-1.2574 IS DISTORTING EXCESSIVELY.
   ELEMENT SPECIMEN-1.2576 IS DISTORTING EXCESSIVELY.
   ELEMENT SPECIMEN-1.2602 IS DISTORTING EXCESSIVELY.
   ELEMENT SPECIMEN-1.2604 IS DISTORTING EXCESSIVELY.
   ELEMENT SPECIMEN-1.2605 IS DISTORTING EXCESSIVELY.
   ELEMENT SPECIMEN-1.2606 IS DISTORTING EXCESSIVELY.
   ELEMENT SPECIMEN-1.2608 IS DISTORTING EXCESSIVELY.
   ELEMENT SPECIMEN-1.2634 IS DISTORTING EXCESSIVELY.
   ELEMENT SPECIMEN-1.2638 IS DISTORTING EXCESSIVELY.
   ELEMENT SPECIMEN-1.2640 IS DISTORTING EXCESSIVELY.
   ELEMENT SPECIMEN-1.2650 IS DISTORTING EXCESSIVELY.
   ELEMENT SPECIMEN-1.2652 IS DISTORTING EXCESSIVELY.
   ELEMENT SPECIMEN-1.2655 IS DISTORTING EXCESSIVELY.
   ELEMENT SPECIMEN-1.2815 IS DISTORTING EXCESSIVELY.
   ELEMENT SPECIMEN-1.2841 IS DISTORTING EXCESSIVELY.
   ELEMENT SPECIMEN-1.2843 IS DISTORTING EXCESSIVELY.
   ELEMENT SPECIMEN-1.2844 IS DISTORTING EXCESSIVELY.
   ELEMENT SPECIMEN-1.2846 IS DISTORTING EXCESSIVELY.
   ELEMENT SPECIMEN-1.2874 IS DISTORTING EXCESSIVELY.
   ELEMENT SPECIMEN-1.2876 IS DISTORTING EXCESSIVELY.
   ELEMENT SPECIMEN-1.2877 IS DISTORTING EXCESSIVELY.
   ELEMENT SPECIMEN-1.2878 IS DISTORTING EXCESSIVELY.
   ELEMENT SPECIMEN-1.2879 IS DISTORTING EXCESSIVELY.
   ELEMENT SPECIMEN-1.2902 IS DISTORTING EXCESSIVELY.
   ELEMENT SPECIMEN-1.2905 IS DISTORTING EXCESSIVELY.
   ELEMENT SPECIMEN-1.2906 IS DISTORTING EXCESSIVELY.
   ELEMENT SPECIMEN-1.2907 IS DISTORTING EXCESSIVELY.
   ELEMENT SPECIMEN-1.2908 IS DISTORTING EXCESSIVELY.
   ELEMENT SPECIMEN-1.2909 IS DISTORTING EXCESSIVELY.
   ELEMENT SPECIMEN-1.2930 IS DISTORTING EXCESSIVELY.
   ELEMENT SPECIMEN-1.2931 IS DISTORTING EXCESSIVELY.
   ELEMENT SPECIMEN-1.2932 IS DISTORTING EXCESSIVELY.
   ELEMENT SPECIMEN-1.2936 IS DISTORTING EXCESSIVELY.
   ELEMENT SPECIMEN-1.3113 IS DISTORTING EXCESSIVELY.
   ELEMENT SPECIMEN-1.3115 IS DISTORTING EXCESSIVELY.
   ELEMENT SPECIMEN-1.3117 IS DISTORTING EXCESSIVELY.
   ELEMENT SPECIMEN-1.3119 IS DISTORTING EXCESSIVELY.
   ELEMENT SPECIMEN-1.3146 IS DISTORTING EXCESSIVELY.
   ELEMENT SPECIMEN-1.3147 IS DISTORTING EXCESSIVELY.
   ELEMENT SPECIMEN-1.3148 IS DISTORTING EXCESSIVELY.
   ELEMENT SPECIMEN-1.3178 IS DISTORTING EXCESSIVELY.
   ELEMENT SPECIMEN-1.3179 IS DISTORTING EXCESSIVELY.
   ELEMENT SPECIMEN-1.3181 IS DISTORTING EXCESSIVELY.
   ELEMENT SPECIMEN-1.3182 IS DISTORTING EXCESSIVELY.
   ELEMENT SPECIMEN-1.3193 IS DISTORTING EXCESSIVELY.
   ELEMENT SPECIMEN-1.3194 IS DISTORTING EXCESSIVELY.
   ELEMENT SPECIMEN-1.3195 IS DISTORTING EXCESSIVELY.
   ELEMENT SPECIMEN-1.3196 IS DISTORTING EXCESSIVELY.
   ELEMENT SPECIMEN-1.3200 IS DISTORTING EXCESSIVELY.
   ELEMENT SPECIMEN-1.3238 IS DISTORTING EXCESSIVELY.
   ELEMENT SPECIMEN-1.3241 IS DISTORTING EXCESSIVELY.
   ELEMENT SPECIMEN-1.3411 IS DISTORTING EXCESSIVELY.
   ELEMENT SPECIMEN-1.3412 IS DISTORTING EXCESSIVELY.
   ELEMENT SPECIMEN-1.3413 IS DISTORTING EXCESSIVELY.
   ELEMENT SPECIMEN-1.3416 IS DISTORTING EXCESSIVELY.
   ELEMENT SPECIMEN-1.3433 IS DISTORTING EXCESSIVELY.
   ELEMENT SPECIMEN-1.3435 IS DISTORTING EXCESSIVELY.
   ELEMENT SPECIMEN-1.3436 IS DISTORTING EXCESSIVELY.
   ELEMENT SPECIMEN-1.3437 IS DISTORTING EXCESSIVELY.
   ELEMENT SPECIMEN-1.3438 IS DISTORTING EXCESSIVELY.
   ELEMENT SPECIMEN-1.3439 IS DISTORTING EXCESSIVELY.
   ELEMENT SPECIMEN-1.3440 IS DISTORTING EXCESSIVELY.
   ELEMENT SPECIMEN-1.3473 IS DISTORTING EXCESSIVELY.
   ELEMENT SPECIMEN-1.3474 IS DISTORTING EXCESSIVELY.
   ELEMENT SPECIMEN-1.3475 IS DISTORTING EXCESSIVELY.
   ELEMENT SPECIMEN-1.3476 IS DISTORTING EXCESSIVELY.
   ELEMENT SPECIMEN-1.3477 IS DISTORTING EXCESSIVELY.
   ELEMENT SPECIMEN-1.3478 IS DISTORTING EXCESSIVELY.
   ELEMENT SPECIMEN-1.3479 IS DISTORTING EXCESSIVELY.
   ELEMENT SPECIMEN-1.3480 IS DISTORTING EXCESSIVELY.
   ELEMENT SPECIMEN-1.3513 IS DISTORTING EXCESSIVELY.
   ELEMENT SPECIMEN-1.3514 IS DISTORTING EXCESSIVELY.
   ELEMENT SPECIMEN-1.3515 IS DISTORTING EXCESSIVELY.
   ELEMENT SPECIMEN-1.3516 IS DISTORTING EXCESSIVELY.
   ELEMENT SPECIMEN-1.3517 IS DISTORTING EXCESSIVELY.
   ELEMENT SPECIMEN-1.3520 IS DISTORTING EXCESSIVELY.
   ELEMENT SPECIMEN-1.3689 IS DISTORTING EXCESSIVELY.
   ELEMENT SPECIMEN-1.3691 IS DISTORTING EXCESSIVELY.
   ELEMENT SPECIMEN-1.3692 IS DISTORTING EXCESSIVELY.
   ELEMENT SPECIMEN-1.3693 IS DISTORTING EXCESSIVELY.
   ELEMENT SPECIMEN-1.3696 IS DISTORTING EXCESSIVELY.
   ELEMENT SPECIMEN-1.3713 IS DISTORTING EXCESSIVELY.
   ELEMENT SPECIMEN-1.3714 IS DISTORTING EXCESSIVELY.
   ELEMENT SPECIMEN-1.3715 IS DISTORTING EXCESSIVELY.
   ELEMENT SPECIMEN-1.3718 IS DISTORTING EXCESSIVELY.
   ELEMENT SPECIMEN-1.3719 IS DISTORTING EXCESSIVELY.
   ELEMENT SPECIMEN-1.3737 IS DISTORTING EXCESSIVELY.
   ELEMENT SPECIMEN-1.3742 IS DISTORTING EXCESSIVELY.
   ELEMENT SPECIMEN-1.3743 IS DISTORTING EXCESSIVELY.
   ELEMENT SPECIMEN-1.3744 IS DISTORTING EXCESSIVELY.
   ELEMENT SPECIMEN-1.3770 IS DISTORTING EXCESSIVELY.
   ELEMENT SPECIMEN-1.3772 IS DISTORTING EXCESSIVELY.
   ELEMENT SPECIMEN-1.3773 IS DISTORTING EXCESSIVELY.
   ELEMENT SPECIMEN-1.3775 IS DISTORTING EXCESSIVELY.
   ELEMENT SPECIMEN-1.3776 IS DISTORTING EXCESSIVELY.
   ELEMENT SPECIMEN-1.3810 IS DISTORTING EXCESSIVELY.
   ELEMENT SPECIMEN-1.3955 IS DISTORTING EXCESSIVELY.
   ELEMENT SPECIMEN-1.3959 IS DISTORTING EXCESSIVELY.
   ELEMENT SPECIMEN-1.3960 IS DISTORTING EXCESSIVELY.
   ELEMENT SPECIMEN-1.3986 IS DISTORTING EXCESSIVELY.
   ELEMENT SPECIMEN-1.3988 IS DISTORTING EXCESSIVELY.
   ELEMENT SPECIMEN-1.3989 IS DISTORTING EXCESSIVELY.
   ELEMENT SPECIMEN-1.3991 IS DISTORTING EXCESSIVELY.
   ELEMENT SPECIMEN-1.3992 IS DISTORTING EXCESSIVELY.
   ELEMENT SPECIMEN-1.4017 IS DISTORTING EXCESSIVELY.
   ELEMENT SPECIMEN-1.4018 IS DISTORTING EXCESSIVELY.
   ELEMENT SPECIMEN-1.4019 IS DISTORTING EXCESSIVELY.
   ELEMENT SPECIMEN-1.4020 IS DISTORTING EXCESSIVELY.
[...]
       ELAPSED WALLCLOCK TIME (SEC) =            0

               CONVERGENCE CHECKS FOR EQUILIBRIUM ITERATION     3


 AVERAGE FORCE                       19.4       TIME AVG. FORCE        17.7    
 LARGEST RESIDUAL FORCE             0.973       AT NODE      14553   DOF  1
   INSTANCE: SPECIMEN-1                                                                      
 LARGEST INCREMENT OF DISP.         3.517E-02   AT NODE        884   DOF  2
   INSTANCE: SPECIMEN-1                                                                      
 LARGEST CORRECTION TO DISP.       -7.947E-04   AT NODE       4632   DOF  2
   INSTANCE: SPECIMEN-1                                                                      
          FORCE     EQUILIBRIUM NOT ACHIEVED WITHIN TOLERANCE.
 
	SYMMETRIC DIRECT SPARSE SOLVER RUNNING ON
 	1 HOST:        1 MPI RANK  x 4 THREADS
 	NUMBER OF EQUATIONS:     47952
 	NUMBER OF RHS:           1
 	NUMBER OF FLOPS:         9.313e+09

     CHECK POINT  START OF SOLVER     

     CHECK POINT  END OF SOLVER       

       ELAPSED USER TIME (SEC)      =  0.90000    
       ELAPSED SYSTEM TIME (SEC)    =   0.0000    
       ELAPSED TOTAL CPU TIME (SEC) =  0.90000    
       ELAPSED WALLCLOCK TIME (SEC) =            0

               CONVERGENCE CHECKS FOR EQUILIBRIUM ITERATION     4


 AVERAGE FORCE                       19.4       TIME AVG. FORCE        17.7    
 LARGEST RESIDUAL FORCE            -3.349E-03   AT NODE       3853   DOF  2
   INSTANCE: SPECIMEN-1                                                                      
 LARGEST INCREMENT OF DISP.         3.517E-02   AT NODE        362   DOF  2
   INSTANCE: SPECIMEN-1                                                                      
 LARGEST CORRECTION TO DISP.       -4.816E-05   AT NODE        916   DOF  2
   INSTANCE: SPECIMEN-1                                                                      
          THE FORCE     EQUILIBRIUM EQUATIONS HAVE CONVERGED
          TIME INCREMENT MAY NOW INCREASE TO    5.273E-02

 ITERATION SUMMARY FOR THE INCREMENT:   4 TOTAL ITERATIONS, OF WHICH
   0 ARE SEVERE DISCONTINUITY ITERATIONS AND  4 ARE EQUILIBRIUM ITERATIONS.

 TIME INCREMENT COMPLETED  3.516E-02,  FRACTION OF STEP COMPLETED  0.371    
 STEP TIME COMPLETED       0.371    ,  TOTAL TIME COMPLETED        0.371    


  INCREMENT     5 STARTS. ATTEMPT NUMBER  1, TIME INCREMENT  5.273E-02
 
	SYMMETRIC DIRECT SPARSE SOLVER RUNNING ON
 	1 HOST:        1 MPI RANK  x 4 THREADS
 	NUMBER OF EQUATIONS:     47952
 	NUMBER OF RHS:           1
 	NUMBER OF FLOPS:         9.313e+09

     CHECK POINT  START OF SOLVER     

     CHECK POINT  END OF SOLVER       

       ELAPSED USER TIME (SEC)      =  0.90000    
       ELAPSED SYSTEM TIME (SEC)    =   0.0000    
       ELAPSED TOTAL CPU TIME (SEC) =  0.90000    
       ELAPSED WALLCLOCK TIME (SEC) =            0

               CONVERGENCE CHECKS FOR EQUILIBRIUM ITERATION     1


 AVERAGE FORCE                       19.7       TIME AVG. FORCE        18.1    
 LARGEST RESIDUAL FORCE             -4.35       AT NODE        647   DOF  3
   INSTANCE: SPECIMEN-1                                                                      
 LARGEST INCREMENT OF DISP.         5.279E-02   AT NODE       8909   DOF  2
   INSTANCE: SPECIMEN-1                                                                      
 LARGEST CORRECTION TO DISP.       -1.714E-03   AT NODE        534   DOF  3
   INSTANCE: SPECIMEN-1                                                                      
          FORCE     EQUILIBRIUM NOT ACHIEVED WITHIN TOLERANCE.
 
	SYMMETRIC DIRECT SPARSE SOLVER RUNNING ON
 	1 HOST:        1 MPI RANK  x 4 THREADS
 	NUMBER OF EQUATIONS:     47952
 	NUMBER OF RHS:           1
 	NUMBER OF FLOPS:         9.313e+09

     CHECK POINT  START OF SOLVER     

     CHECK POINT  END OF SOLVER       

       ELAPSED USER TIME (SEC)      =   1.0000    
       ELAPSED SYSTEM TIME (SEC)    =   0.0000    
       ELAPSED TOTAL CPU TIME (SEC) =   1.0000    
       ELAPSED WALLCLOCK TIME (SEC) =            0

               CONVERGENCE CHECKS FOR EQUILIBRIUM ITERATION     2


 AVERAGE FORCE                       19.6       TIME AVG. FORCE        18.1    
 LARGEST RESIDUAL FORCE             0.349       AT NODE       1048   DOF  3
   INSTANCE: SPECIMEN-1                                                                      
 LARGEST INCREMENT OF DISP.         5.274E-02   AT NODE       4787   DOF  2
   INSTANCE: SPECIMEN-1                                                                      
 LARGEST CORRECTION TO DISP.        7.454E-04   AT NODE       4917   DOF  2
   INSTANCE: SPECIMEN-1                                                                      
          FORCE     EQUILIBRIUM NOT ACHIEVED WITHIN TOLERANCE.
 
	SYMMETRIC DIRECT SPARSE SOLVER RUNNING ON
 	1 HOST:        1 MPI RANK  x 4 THREADS
 	NUMBER OF EQUATIONS:     47952
 	NUMBER OF RHS:           1
 	NUMBER OF FLOPS:         9.313e+09

     CHECK POINT  START OF SOLVER     

     CHECK POINT  END OF SOLVER       

       ELAPSED USER TIME (SEC)      =  0.80000    
       ELAPSED SYSTEM TIME (SEC)    =   0.0000    
       ELAPSED TOTAL CPU TIME (SEC) =  0.80000    
       ELAPSED WALLCLOCK TIME (SEC) =            0

               CONVERGENCE CHECKS FOR EQUILIBRIUM ITERATION     3


 AVERAGE FORCE                       19.6       TIME AVG. FORCE        18.1    
 LARGEST RESIDUAL FORCE             1.135E-03   AT NODE       3114   DOF  2
   INSTANCE: SPECIMEN-1                                                                      
 LARGEST INCREMENT OF DISP.         5.274E-02   AT NODE       4787   DOF  2
   INSTANCE: SPECIMEN-1                                                                      
 LARGEST CORRECTION TO DISP.        1.967E-05   AT NODE       6745   DOF  2
   INSTANCE: SPECIMEN-1                                                                      
          THE FORCE     EQUILIBRIUM EQUATIONS HAVE CONVERGED
          TIME INCREMENT MAY NOW INCREASE TO    7.910E-02

 ITERATION SUMMARY FOR THE INCREMENT:   3 TOTAL ITERATIONS, OF WHICH
   0 ARE SEVERE DISCONTINUITY ITERATIONS AND  3 ARE EQUILIBRIUM ITERATIONS.

 TIME INCREMENT COMPLETED  5.273E-02,  FRACTION OF STEP COMPLETED  0.424    
 STEP TIME COMPLETED       0.424    ,  TOTAL TIME COMPLETED        0.424    


  INCREMENT     6 STARTS. ATTEMPT NUMBER  1, TIME INCREMENT  7.910E-02
 
	SYMMETRIC DIRECT SPARSE SOLVER RUNNING ON
 	1 HOST:        1 MPI RANK  x 4 THREADS
 	NUMBER OF EQUATIONS:     47952
 	NUMBER OF RHS:           1
 	NUMBER OF FLOPS:         9.313e+09

     CHECK POINT  START OF SOLVER     

     CHECK POINT  END OF SOLVER       

       ELAPSED USER TIME (SEC)      =  0.90000    
       ELAPSED SYSTEM TIME (SEC)    =  0.10000    
       ELAPSED TOTAL CPU TIME (SEC) =   1.0000    
       ELAPSED WALLCLOCK TIME (SEC) =            1

               CONVERGENCE CHECKS FOR EQUILIBRIUM ITERATION     1


 AVERAGE FORCE                       19.9       TIME AVG. FORCE        18.4    
 LARGEST RESIDUAL FORCE             -3.64       AT NODE        641   DOF  3
   INSTANCE: SPECIMEN-1                                                                      
 LARGEST INCREMENT OF DISP.         7.920E-02   AT NODE        333   DOF  2
   INSTANCE: SPECIMEN-1                                                                      
 LARGEST CORRECTION TO DISP.        3.222E-03   AT NODE       5955   DOF  3
   INSTANCE: SPECIMEN-1                                                                      
          FORCE     EQUILIBRIUM NOT ACHIEVED WITHIN TOLERANCE.
 
	SYMMETRIC DIRECT SPARSE SOLVER RUNNING ON
 	1 HOST:        1 MPI RANK  x 4 THREADS
 	NUMBER OF EQUATIONS:     47952
 	NUMBER OF RHS:           1
 	NUMBER OF FLOPS:         9.313e+09

     CHECK POINT  START OF SOLVER     

     CHECK POINT  END OF SOLVER       

       ELAPSED USER TIME (SEC)      =   1.0000    
       ELAPSED SYSTEM TIME (SEC)    =   0.0000    
       ELAPSED TOTAL CPU TIME (SEC) =   1.0000    
       ELAPSED WALLCLOCK TIME (SEC) =            0

               CONVERGENCE CHECKS FOR EQUILIBRIUM ITERATION     2


 AVERAGE FORCE                       19.9       TIME AVG. FORCE        18.4    
 LARGEST RESIDUAL FORCE            -7.693E-02   AT NODE        640   DOF  3
   INSTANCE: SPECIMEN-1                                                                      
 LARGEST INCREMENT OF DISP.         7.921E-02   AT NODE        640   DOF  2
   INSTANCE: SPECIMEN-1                                                                      
 LARGEST CORRECTION TO DISP.       -3.073E-04   AT NODE        642   DOF  2
   INSTANCE: SPECIMEN-1                                                                      
          THE FORCE     EQUILIBRIUM EQUATIONS HAVE CONVERGED
          TIME INCREMENT MAY NOW INCREASE TO    0.119    

 ITERATION SUMMARY FOR THE INCREMENT:   2 TOTAL ITERATIONS, OF WHICH
   0 ARE SEVERE DISCONTINUITY ITERATIONS AND  2 ARE EQUILIBRIUM ITERATIONS.

 TIME INCREMENT COMPLETED  7.910E-02,  FRACTION OF STEP COMPLETED  0.503    
 STEP TIME COMPLETED       0.503    ,  TOTAL TIME COMPLETED        0.503    


  INCREMENT     7 STARTS. ATTEMPT NUMBER  1, TIME INCREMENT  0.119    
 
	SYMMETRIC DIRECT SPARSE SOLVER RUNNING ON
 	1 HOST:        1 MPI RANK  x 4 THREADS
 	NUMBER OF EQUATIONS:     47952
 	NUMBER OF RHS:           1
 	NUMBER OF FLOPS:         9.313e+09

     CHECK POINT  START OF SOLVER     

     CHECK POINT  END OF SOLVER       

       ELAPSED USER TIME (SEC)      =  0.80000    
       ELAPSED SYSTEM TIME (SEC)    =   0.0000    
       ELAPSED TOTAL CPU TIME (SEC) =  0.80000    
       ELAPSED WALLCLOCK TIME (SEC) =            1

               CONVERGENCE CHECKS FOR EQUILIBRIUM ITERATION     1


 AVERAGE FORCE                       20.1       TIME AVG. FORCE        18.6    
 LARGEST RESIDUAL FORCE              1.40       AT NODE       1055   DOF  3
   INSTANCE: SPECIMEN-1                                                                      
 LARGEST INCREMENT OF DISP.         0.119       AT NODE        611   DOF  2
   INSTANCE: SPECIMEN-1                                                                      
 LARGEST CORRECTION TO DISP.        3.617E-03   AT NODE        807   DOF  1
   INSTANCE: SPECIMEN-1                                                                      
          FORCE     EQUILIBRIUM NOT ACHIEVED WITHIN TOLERANCE.
 
	SYMMETRIC DIRECT SPARSE SOLVER RUNNING ON
 	1 HOST:        1 MPI RANK  x 4 THREADS
 	NUMBER OF EQUATIONS:     47952
 	NUMBER OF RHS:           1
 	NUMBER OF FLOPS:         9.313e+09

     CHECK POINT  START OF SOLVER     

     CHECK POINT  END OF SOLVER       

       ELAPSED USER TIME (SEC)      =  0.90000    
       ELAPSED SYSTEM TIME (SEC)    =   0.0000    
       ELAPSED TOTAL CPU TIME (SEC) =  0.90000    
       ELAPSED WALLCLOCK TIME (SEC) =            0

               CONVERGENCE CHECKS FOR EQUILIBRIUM ITERATION     2


 AVERAGE FORCE                       20.1       TIME AVG. FORCE        18.6    
 LARGEST RESIDUAL FORCE            -1.337E-02   AT NODE       7286   DOF  2
   INSTANCE: SPECIMEN-1                                                                      
 LARGEST INCREMENT OF DISP.         0.119       AT NODE        611   DOF  2
   INSTANCE: SPECIMEN-1                                                                      
 LARGEST CORRECTION TO DISP.       -1.819E-04   AT NODE        534   DOF  3
   INSTANCE: SPECIMEN-1                                                                      
          THE FORCE     EQUILIBRIUM EQUATIONS HAVE CONVERGED
          TIME INCREMENT MAY NOW INCREASE TO    0.178    

 ITERATION SUMMARY FOR THE INCREMENT:   2 TOTAL ITERATIONS, OF WHICH
   0 ARE SEVERE DISCONTINUITY ITERATIONS AND  2 ARE EQUILIBRIUM ITERATIONS.

 TIME INCREMENT COMPLETED  0.119    ,  FRACTION OF STEP COMPLETED  0.622    
 STEP TIME COMPLETED       0.622    ,  TOTAL TIME COMPLETED        0.622    


  INCREMENT     8 STARTS. ATTEMPT NUMBER  1, TIME INCREMENT  0.178    
 
	SYMMETRIC DIRECT SPARSE SOLVER RUNNING ON
 	1 HOST:        1 MPI RANK  x 4 THREADS
 	NUMBER OF EQUATIONS:     47952
 	NUMBER OF RHS:           1
 	NUMBER OF FLOPS:         9.313e+09

     CHECK POINT  START OF SOLVER     

     CHECK POINT  END OF SOLVER       

       ELAPSED USER TIME (SEC)      =  0.90000    
       ELAPSED SYSTEM TIME (SEC)    =   0.0000    
       ELAPSED TOTAL CPU TIME (SEC) =  0.90000    
       ELAPSED WALLCLOCK TIME (SEC) =            1

               CONVERGENCE CHECKS FOR EQUILIBRIUM ITERATION     1


 AVERAGE FORCE                       20.4       TIME AVG. FORCE        18.8    
 LARGEST RESIDUAL FORCE              4.94       AT NODE        733   DOF  1
   INSTANCE: SPECIMEN-1                                                                      
 LARGEST INCREMENT OF DISP.         0.178       AT NODE        912   DOF  2
   INSTANCE: SPECIMEN-1                                                                      
 LARGEST CORRECTION TO DISP.       -7.183E-03   AT NODE        424   DOF  1
   INSTANCE: SPECIMEN-1                                                                      
          FORCE     EQUILIBRIUM NOT ACHIEVED WITHIN TOLERANCE.
 
	SYMMETRIC DIRECT SPARSE SOLVER RUNNING ON
 	1 HOST:        1 MPI RANK  x 4 THREADS
 	NUMBER OF EQUATIONS:     47952
 	NUMBER OF RHS:           1
 	NUMBER OF FLOPS:         9.313e+09

     CHECK POINT  START OF SOLVER     

     CHECK POINT  END OF SOLVER       

       ELAPSED USER TIME (SEC)      =  0.90000    
       ELAPSED SYSTEM TIME (SEC)    =   0.0000    
       ELAPSED TOTAL CPU TIME (SEC) =  0.90000    
       ELAPSED WALLCLOCK TIME (SEC) =            0

               CONVERGENCE CHECKS FOR EQUILIBRIUM ITERATION     2


 AVERAGE FORCE                       20.4       TIME AVG. FORCE        18.8    
 LARGEST RESIDUAL FORCE            -0.118       AT NODE       5948   DOF  3
   INSTANCE: SPECIMEN-1                                                                      
 LARGEST INCREMENT OF DISP.         0.178       AT NODE       1056   DOF  2
   INSTANCE: SPECIMEN-1                                                                      
 LARGEST CORRECTION TO DISP.       -5.585E-04   AT NODE        534   DOF  3
   INSTANCE: SPECIMEN-1                                                                      
          FORCE     EQUILIBRIUM NOT ACHIEVED WITHIN TOLERANCE.
 
	SYMMETRIC DIRECT SPARSE SOLVER RUNNING ON
 	1 HOST:        1 MPI RANK  x 4 THREADS
 	NUMBER OF EQUATIONS:     47952
 	NUMBER OF RHS:           1
 	NUMBER OF FLOPS:         9.313e+09

     CHECK POINT  START OF SOLVER     

     CHECK POINT  END OF SOLVER       

       ELAPSED USER TIME (SEC)      =  0.90000    
       ELAPSED SYSTEM TIME (SEC)    =   0.0000    
       ELAPSED TOTAL CPU TIME (SEC) =  0.90000    
       ELAPSED WALLCLOCK TIME (SEC) =            0

               CONVERGENCE CHECKS FOR EQUILIBRIUM ITERATION     3


 AVERAGE FORCE                       20.4       TIME AVG. FORCE        18.8    
 LARGEST RESIDUAL FORCE             8.082E-04   AT NODE       8619   DOF  2
   INSTANCE: SPECIMEN-1                                                                      
 LARGEST INCREMENT OF DISP.         0.178       AT NODE        912   DOF  2
   INSTANCE: SPECIMEN-1                                                                      
 LARGEST CORRECTION TO DISP.        1.171E-05   AT NODE        807   DOF  1
   INSTANCE: SPECIMEN-1                                                                      
          THE FORCE     EQUILIBRIUM EQUATIONS HAVE CONVERGED
          TIME INCREMENT MAY NOW INCREASE TO    0.267    

 ITERATION SUMMARY FOR THE INCREMENT:   3 TOTAL ITERATIONS, OF WHICH
   0 ARE SEVERE DISCONTINUITY ITERATIONS AND  3 ARE EQUILIBRIUM ITERATIONS.

 TIME INCREMENT COMPLETED  0.178    ,  FRACTION OF STEP COMPLETED  0.800    
 STEP TIME COMPLETED       0.800    ,  TOTAL TIME COMPLETED        0.800    


  INCREMENT     9 STARTS. ATTEMPT NUMBER  1, TIME INCREMENT  0.200    
 
	SYMMETRIC DIRECT SPARSE SOLVER RUNNING ON
 	1 HOST:        1 MPI RANK  x 4 THREADS
 	NUMBER OF EQUATIONS:     47952
 	NUMBER OF RHS:           1
 	NUMBER OF FLOPS:         9.313e+09

     CHECK POINT  START OF SOLVER     

     CHECK POINT  END OF SOLVER       

       ELAPSED USER TIME (SEC)      =  0.90000    
       ELAPSED SYSTEM TIME (SEC)    =  0.10000    
       ELAPSED TOTAL CPU TIME (SEC) =   1.0000    
       ELAPSED WALLCLOCK TIME (SEC) =            0

               CONVERGENCE CHECKS FOR EQUILIBRIUM ITERATION     1


 AVERAGE FORCE                       20.8       TIME AVG. FORCE        19.1    
 LARGEST RESIDUAL FORCE              1.82       AT NODE       1046   DOF  3
   INSTANCE: SPECIMEN-1                                                                      
 LARGEST INCREMENT OF DISP.         0.200       AT NODE       2983   DOF  2
   INSTANCE: SPECIMEN-1                                                                      
 LARGEST CORRECTION TO DISP.       -5.912E-03   AT NODE       2571   DOF  3
   INSTANCE: SPECIMEN-1                                                                      
          FORCE     EQUILIBRIUM NOT ACHIEVED WITHIN TOLERANCE.
 
	SYMMETRIC DIRECT SPARSE SOLVER RUNNING ON
 	1 HOST:        1 MPI RANK  x 4 THREADS
 	NUMBER OF EQUATIONS:     47952
 	NUMBER OF RHS:           1
 	NUMBER OF FLOPS:         9.313e+09

     CHECK POINT  START OF SOLVER     

     CHECK POINT  END OF SOLVER       

       ELAPSED USER TIME (SEC)      =  0.90000    
       ELAPSED SYSTEM TIME (SEC)    =   0.0000    
       ELAPSED TOTAL CPU TIME (SEC) =  0.90000    
       ELAPSED WALLCLOCK TIME (SEC) =            0

               CONVERGENCE CHECKS FOR EQUILIBRIUM ITERATION     2


 AVERAGE FORCE                       20.8       TIME AVG. FORCE        19.1    
 LARGEST RESIDUAL FORCE             3.811E-02   AT NODE       7234   DOF  2
   INSTANCE: SPECIMEN-1                                                                      
 LARGEST INCREMENT OF DISP.         0.200       AT NODE       2983   DOF  2
   INSTANCE: SPECIMEN-1                                                                      
 LARGEST CORRECTION TO DISP.        3.947E-04   AT NODE       3113   DOF  2
   INSTANCE: SPECIMEN-1                                                                      
          THE FORCE     EQUILIBRIUM EQUATIONS HAVE CONVERGED

 ITERATION SUMMARY FOR THE INCREMENT:   2 TOTAL ITERATIONS, OF WHICH
   0 ARE SEVERE DISCONTINUITY ITERATIONS AND  2 ARE EQUILIBRIUM ITERATIONS.

 TIME INCREMENT COMPLETED  0.200    ,  FRACTION OF STEP COMPLETED   1.00    
 STEP TIME COMPLETED        1.00    ,  TOTAL TIME COMPLETED         1.00    


          THE ANALYSIS HAS BEEN COMPLETED



     ANALYSIS SUMMARY:
     TOTAL OF          9  INCREMENTS
                       3  CUTBACKS IN AUTOMATIC INCREMENTATION
                      32  ITERATIONS INCLUDING CONTACT ITERATIONS IF PRESENT
                      32  PASSES THROUGH THE EQUATION SOLVER OF WHICH 
                      32  INVOLVE MATRIX DECOMPOSITION, INCLUDING
                       0  DECOMPOSITION(S) OF THE MASS MATRIX
                       1  REORDERING OF EQUATIONS TO MINIMIZE WAVEFRONT
                       0  ADDITIONAL RESIDUAL EVALUATIONS FOR LINE SEARCHES
                       0  ADDITIONAL OPERATOR EVALUATIONS FOR LINE SEARCHES
                       0  WARNING MESSAGES DURING USER INPUT PROCESSING
                      12  WARNING MESSAGES DURING ANALYSIS
                       0  ANALYSIS WARNINGS ARE NUMERICAL PROBLEM MESSAGES
                       3  ANALYSIS WARNINGS ARE NEGATIVE EIGENVALUE MESSAGES
                       0  ERROR MESSAGES



     JOB TIME SUMMARY
       USER TIME (SEC)      =      46.    
       SYSTEM TIME (SEC)    =      2.4    
       TOTAL CPU TIME (SEC) =      48.    
       WALLCLOCK TIME (SEC) =           22
       MEMORY PEAK (GB)     =            0
