*Heading
** Job name: XFEM_CRACK_COMPOSITE Model name: Model-1
** Generated by: Abaqus/CAE 2022.HF2
*Preprint, echo=NO, model=NO, history=NO, contact=NO
**
** PARTS
**
*Part, name=COMPOSITE
*Node
      1,  -1.60000002,          40.,           0.
      2,          -4.,          40.,           0.
      3,   -6.4000001,          40.,           0.
      4,           0.,          40.,           0.
      5,          -8.,          40.,           0.
      6,   1.60000002,          40.,           0.
      7,           4.,          40.,           0.
      8,    5.5999999,          40.,           0.
      9,           8.,          40.,           0.
     10,           8.,    38.421051,           0.
     11,           8.,   36.0526314,           0.
     12,           8.,   34.4736824,           0.
     13,           8.,   32.8947372,           0.
     14,           8.,   30.5263157,           0.
     15,           8.,   28.9473686,           0.
     16,           8.,   26.5789471,           0.
     17,           8.,          25.,           0.
     18,           8.,   24.5825748,           0.
     19,   5.27177286,   21.6259975,           0.
     20,   6.61845779,   23.6830921,           0.
** ... 3904 like lines cut
*Element, type=C3D8R
   1,  591,  653,    3,  435, 2553, 2615, 1965, 2397
   2, 1028,  137,  785,  939, 2990, 2099, 2747, 2901
   3, 1775,  814,  136,  959, 3737, 2776, 2098, 2921
   4, 1775,  959, 1183,  144, 3737, 2921, 3145, 2106
   5, 1436, 1336, 1265,  133, 3398, 3298, 3227, 2095
   6, 1774,  953,  815,  133, 3736, 2915, 2777, 2095
   7, 1055,  954,  809,  132, 3017, 2916, 2771, 2094
   8, 1052,  958,  807,  131, 3014, 2920, 2769, 2093
   9, 1048,  962,  803,  130, 3010, 2924, 2765, 2092
  10,  598,  444,  443,  597, 2560, 2406, 2405, 2559
  11,  129,  876,  597,  572, 2091, 2838, 2559, 2534
  12,  573,  794,  147,  552, 2535, 2756, 2109, 2514
  13,   11,  573,  552,  445, 1973, 2535, 2514, 2407
  14,  147,  862,  574,  552, 2109, 2824, 2536, 2514
  15,  157, 1098,  887,  984, 2119, 3060, 2849, 2946
  16,  167, 1352, 1190, 1443, 2129, 3314, 3152, 3405
  17, 1352, 1429, 1531,  175, 3314, 3391, 3493, 2137
  18,  192, 1690, 1658, 1720, 2154, 3652, 3620, 3682
  19, 1559, 1595, 1643, 1549, 3521, 3557, 3605, 3511
  20,  206, 1171, 1158, 1318, 2168, 3133, 3120, 3280
** ... 1817 like lines cut
*Nset, nset=Set-1, generate
    1,  3924,     1
*Elset, elset=Set-1, generate
    1,  1837,     1
*Orientation, name=Ori-1
          1.,           0.,           0.,           0.,           1.,           0.
3, 90.
** Section: Section-1
*Solid Section, elset=Set-1, orientation=Ori-1, material=COMPOSITE
,
*End Part
**  
*Part, name=Part-2
*End Part
**  
**
** ASSEMBLY
**
*Assembly, name=Assembly
**  
*Instance, name=COMPOSITE-1, part=COMPOSITE
*End Instance
**  
*Instance, name=Part-2-1, part=Part-2
         -5.,           0.,           0.
*End Instance
**  
*Nset, nset=Set-3, instance=COMPOSITE-1
   65,   66,   67,   68,   69,   70,   71,   72,   73,  490,  491,  492,  493,  494,  495,  496
  497,  498,  499,  500,  501, 2027, 2028, 2029, 2030, 2031, 2032, 2033, 2034, 2035, 2452, 2453
 2454, 2455, 2456, 2457, 2458, 2459, 2460, 2461, 2462, 2463
*Elset, elset=Set-3, instance=COMPOSITE-1
 230, 231, 253, 261, 274, 275, 285, 286, 287, 711, 718, 719, 722, 723, 724, 822
 829, 831, 841, 842
*Nset, nset=Set-4, instance=COMPOSITE-1, generate
    1,  3924,     1
*Elset, elset=Set-4, instance=COMPOSITE-1, generate
    1,  1837,     1
*Nset, nset=_PickedSet6, internal, instance=COMPOSITE-1, generate
    1,  3924,     1
*Elset, elset=_PickedSet6, internal, instance=COMPOSITE-1, generate
    1,  1837,     1
*Elset, elset=_Surf-1_S5, internal, instance=COMPOSITE-1
   1,  40, 369, 372, 689, 824, 825, 836, 839, 840
*Elset, elset=_Surf-1_S3, internal, instance=COMPOSITE-1
  34,  39, 684, 685, 687, 688, 828
*Elset, elset=_Surf-1_S6, internal, instance=COMPOSITE-1
 690,
*Elset, elset=_Surf-1_S4, internal, instance=COMPOSITE-1
 742, 821
*Surface, type=ELEMENT, name=Surf-1
_Surf-1_S5, S5
_Surf-1_S3, S3
_Surf-1_S6, S6
_Surf-1_S4, S4
*Enrichment, name=Crack-1, type=PROPAGATION CRACK, elset=_PickedSet6
*End Assembly
** 
** MATERIALS
** 
*Material, name=COMPOSITE
*Damage Initiation, criterion=MAXS
60.,180.,180.
*Damage Evolution, type=ENERGY, mixed mode behavior=BK, power=2.2
 0.3, 0.8, 0.8
*Damage Stabilization
1e-05
*Elastic, type=ENGINEERING CONSTANTS
150000.,9000.,9000., 0.34, 0.34,  0.4,5000.,5000.
5000.,
*Initial Conditions, type=ENRICHMENT
COMPOSITE-1.1572, 1,Crack-1, 0.28255, -0.577782
COMPOSITE-1.1572, 2,Crack-1, 0.692135, -0.0619841
COMPOSITE-1.1572, 3,Crack-1, 0.0599736, 0.398267
COMPOSITE-1.1572, 4,Crack-1, -0.3957, -0.197757
COMPOSITE-1.1572, 5,Crack-1, 0.28255, -0.577782
COMPOSITE-1.1572, 6,Crack-1, 0.692135, -0.0619841
COMPOSITE-1.1572, 7,Crack-1, 0.0599736, 0.398267
COMPOSITE-1.1572, 8,Crack-1, -0.3957, -0.197757
COMPOSITE-1.1815, 1,Crack-1, 0.28255
COMPOSITE-1.1815, 2,Crack-1, -0.3957
COMPOSITE-1.1815, 3,Crack-1, -0.933698
COMPOSITE-1.1815, 4,Crack-1, 0.0117095
COMPOSITE-1.1815, 5,Crack-1, 0.28255
COMPOSITE-1.1815, 6,Crack-1, -0.3957
COMPOSITE-1.1815, 7,Crack-1, -0.933698
COMPOSITE-1.1815, 8,Crack-1, 0.0117095
COMPOSITE-1.324, 1,Crack-1, 0.0117095
COMPOSITE-1.324, 2,Crack-1, -0.933698
COMPOSITE-1.324, 3,Crack-1, -0.91219
COMPOSITE-1.324, 4,Crack-1, -0.0591271
** ... 52 like lines cut
** ----------------------------------------------------------------
** 
** STEP: Step-1
** 
*Step, name=Step-1, nlgeom=NO, inc=10000000
*Static, stabilize=0.0002, allsdtol=0.05, continue=NO
0.01, 1., 1e-09, 1.
** 
** BOUNDARY CONDITIONS
** 
** Name: BC-1 Type: Symmetry/Antisymmetry/Encastre
*Boundary
Set-3, ENCASTRE
** Name: BC-2 Type: Displacement/Rotation
*Boundary
Set-4, 1, 1
Set-4, 3, 3
Set-4, 4, 4
Set-4, 5, 5
Set-4, 6, 6
** 
** LOADS
** 
** Name: Load-1   Type: Pressure
*Dsload
Surf-1, P, -100.
** 
** INTERACTIONS
** 
** Interaction: Int-1
*Enrichment Activation, name=Crack-1, activate=ON
** 
** OUTPUT REQUESTS
** 
*Restart, write, frequency=0
** 
** FIELD OUTPUT: F-Output-1
** 
*Output, field
*Node Output
CF, PHILSM, PSILSM, RF, U
*Element Output, directions=YES
LE, LOADSXFEM, PE, PEEQ, PEMAG, S, STATUSXFEM
*Contact Output
CDISP, CSTRESS
** 
** HISTORY OUTPUT: H-Output-1
** 
*Output, history, variable=PRESELECT
*End Step
