 Abaqus/Standard 2022.HF2                  DATE 29-Sep-2022 TIME 16:46:37
 SUMMARY OF JOB INFORMATION:
 STEP  INC ATT SEVERE EQUIL TOTAL  TOTAL      STEP       INC OF       DOF    IF
               DISCON ITERS ITERS  TIME/    TIME/LPF    TIME/LPF    MONITOR RIKS
               ITERS               FREQ
   1     1   1     0     1     1  0.0100     0.0100     0.01000   
   1     2   1     0     1     1  0.0200     0.0200     0.01000   
   1     3   1     0     1     1  0.0350     0.0350     0.01500   
   1     4   1     0     1     1  0.0575     0.0575     0.02250   
   1     5   1     0     1     1  0.0912     0.0912     0.03375   
   1     6   1U    0     1     1  0.0912     0.0912     0.05063   
   1     6   2U    0     1     1  0.0912     0.0912     0.04085   
   1     6   3     0     1     1  0.109      0.109      0.01770   
   1     7   1U    0     1     1  0.109      0.109      0.02655   
   1     7   2U    0     1     1  0.109      0.109      0.02244   
   1     7   3     0     1     1  0.119      0.119      0.009775  
   1     8   1U    0     1     1  0.119      0.119      0.01466   
   1     8   2U    0     1     1  0.119      0.119      0.01298   
   1     8   3U    0     1     1  0.119      0.119      0.005820  
   1     8   4     0     2     2  0.121      0.121      0.001842  
   1     9   1     0     3     3  0.123      0.123      0.002763  
   1    10   1     0     1     1  0.127      0.127      0.004145  
   1    11   1     0     1     1  0.134      0.134      0.006217  
   1    12   1     0     1     1  0.143      0.143      0.009325  
   1    13   1     0     2     2  0.157      0.157      0.01399   
   1    14   1U    0     1     1  0.157      0.157      0.02098   
   1    14   2U    0     1     1  0.157      0.157      0.01730   
   1    14   3     0     2     2  0.165      0.165      0.007501  
   1    15   1U    0     1     1  0.165      0.165      0.01125   
   1    15   2U    0     1     1  0.165      0.165      0.009557  
   1    15   3U    0     1     1  0.165      0.165      0.004156  
   1    15   4     0     3     3  0.166      0.166      0.001304  
   1    16   1U    0     1     1  0.166      0.166      0.001956  
   1    16   2U    0     1     1  0.166      0.166      0.001194  
   1    16   3U    0     1     1  0.166      0.166      0.0003743 
   1    16   4U    0     1     1  0.166      0.166      8.230e-05 
   1    16   5U    0     1     1  0.166      0.166      1.428e-05 
   1    16   6U    0     1     1  0.166      0.166      1.428e-05 
                          
 THE ANALYSIS HAS NOT BEEN COMPLETED
