1

   Abaqus 2022.HF2                                  Date 29-Sep-2022   Time 16:46:37
   For use by VIRGINIA POLYTECHNIC INSTITUTE _ STATE UNIVERSITY under license from Dassault Systemes or its subsidiary.

                                                                                 
                                                                                 
 STEP    1     INCREMENT     1     STEP TIME    0.00    


                        S T E P       1     S T A T I C   A N A L Y S I S


                                                                                          

     AUTOMATIC TIME CONTROL WITH -
          A SUGGESTED INITIAL TIME INCREMENT OF                1.000E-02
          AND A TOTAL TIME PERIOD OF                            1.00    
          THE MINIMUM TIME INCREMENT ALLOWED IS                1.000E-09
          THE MAXIMUM TIME INCREMENT ALLOWED IS                 1.00    

     LINEAR EQUATION SOLVER TYPE         DIRECT SPARSE

     ADAPTIVE AUTOMATIC STABILIZATION WITH 
     INITIAL DISSIPATED ENERGY FRACTION  =   2.000E-04

 CONVERGENCE TOLERANCE PARAMETERS FOR FORCE    
     CRITERION FOR RESIDUAL FORCE     FOR A NONLINEAR PROBLEM          5.000E-03
     CRITERION FOR DISP.    CORRECTION IN A NONLINEAR PROBLEM          1.000E-02
     INITIAL VALUE OF TIME AVERAGE FORCE                               1.000E-02
     AVERAGE FORCE     IS TIME AVERAGE FORCE    
     ALTERNATE CRIT. FOR RESIDUAL FORCE     FOR A NONLINEAR PROBLEM    2.000E-02
     CRITERION FOR ZERO FORCE     RELATIVE TO TIME AVRG. FORCE         1.000E-05
     CRITERION FOR RESIDUAL FORCE     WHEN THERE IS ZERO FLUX          1.000E-05
     CRITERION FOR DISP.    CORRECTION WHEN THERE IS ZERO FLUX         1.000E-03
     CRITERION FOR RESIDUAL FORCE     FOR A LINEAR INCREMENT           1.000E-08
     FIELD CONVERSION RATIO                                             1.00    
     CRITERION FOR ZERO FORCE     REL. TO TIME AVRG. MAX. FORCE        1.000E-05
     CRITERION FOR ZERO DISP.    RELATIVE TO CHARACTERISTIC LENGTH     1.000E-08

     VOLUMETRIC STRAIN COMPATIBILITY TOLERANCE FOR HYBRID SOLIDS       1.000E-05
     AXIAL STRAIN COMPATIBILITY TOLERANCE FOR HYBRID BEAMS             1.000E-05
     TRANS. SHEAR STRAIN COMPATIBILITY TOLERANCE FOR HYBRID BEAMS      1.000E-05
     SOFT CONTACT CONSTRAINT COMPATIBILITY TOLERANCE FOR P>P0          5.000E-03
     SOFT CONTACT CONSTRAINT COMPATIBILITY TOLERANCE FOR P=0.0         0.100    
     CONTACT FORCE ERROR TOLERANCE FOR CONVERT SDI=YES                 1.00    
     DISPLACEMENT COMPATIBILITY TOLERANCE FOR DCOUP ELEMENTS           1.000E-05
     ROTATION COMPATIBILITY TOLERANCE FOR DCOUP ELEMENTS               1.000E-05

 EQUILIBRIUM WILL BE CHECKED FOR SEVERE DISCONTINUITY ITERATIONS

 TIME INCREMENTATION CONTROL PARAMETERS:
     FIRST EQUILIBRIUM ITERATION FOR CONSECUTIVE DIVERGENCE CHECK              4
     EQUILIBRIUM ITERATION AT WHICH LOG. CONVERGENCE RATE CHECK BEGINS         8
     EQUILIBRIUM ITERATION AFTER WHICH ALTERNATE RESIDUAL IS USED              9
     MAXIMUM EQUILIBRIUM ITERATIONS ALLOWED                                   16
     EQUILIBRIUM ITERATION COUNT FOR CUT-BACK IN NEXT INCREMENT               10
     MAXIMUM EQUILIB. ITERS IN TWO INCREMENTS FOR TIME INCREMENT INCREASE      4
     MAXIMUM ITERATIONS FOR SEVERE DISCONTINUITIES                            50
     MAXIMUM ATTEMPTS ALLOWED IN AN INCREMENT                                  5
     MAXIMUM DISCON. ITERS IN TWO INCREMENTS FOR TIME INCREMENT INCREASE      50
     MAXIMUM CONTACT AUGMENTATIONS FOR *SURFACE BEHAVIOR,AUGMENTED LAGRANGE   50
     CUT-BACK FACTOR AFTER DIVERGENCE                                 0.2500    
     CUT-BACK FACTOR FOR TOO SLOW CONVERGENCE                         0.5000    
     CUT-BACK FACTOR AFTER TOO MANY EQUILIBRIUM ITERATIONS            0.7500    
     CUT-BACK FACTOR AFTER TOO MANY SEVERE DISCONTINUITY ITERATIONS   0.2500    
     CUT-BACK FACTOR AFTER PROBLEMS IN ELEMENT ASSEMBLY               0.2500    
     INCREASE FACTOR AFTER TWO INCREMENTS THAT CONVERGE QUICKLY        1.500    
     MAX. TIME INCREMENT INCREASE FACTOR ALLOWED                       1.500    
     MAX. TIME INCREMENT INCREASE FACTOR ALLOWED (DYNAMICS)            1.250    
     MAX. TIME INCREMENT INCREASE FACTOR ALLOWED (DIFFUSION)           2.000    
     MINIMUM TIME INCREMENT RATIO FOR EXTRAPOLATION TO OCCUR          0.1000    
     MAX. RATIO OF TIME INCREMENT TO STABILITY LIMIT                   1.000    
     FRACTION OF STABILITY LIMIT FOR NEW TIME INCREMENT               0.9500    
     TIME INCREMENT INCREASE FACTOR BEFORE A TIME POINT                1.000    
     GLOBAL STABILIZATION CONTROL IS NOT USED

          PRINT OF INCREMENT NUMBER, TIME, ETC., EVERY    1  INCREMENTS

     THE MAXIMUM NUMBER OF INCREMENTS IN THIS STEP IS                 *******

     LINEAR EXTRAPOLATION WILL BE USED

     CHARACTERISTIC ELEMENT LENGTH     0.558    

     DETAILS REGARDING ACTUAL SOLUTION WAVEFRONT REQUESTED

     DETAILED OUTPUT OF DIAGNOSTICS TO DATABASE REQUESTED

     PRINT OF INCREMENT NUMBER, TIME, ETC., TO THE MESSAGE FILE EVERY     1  INCREMENTS

     ELEMENT OPERATIONS WILL BE CARRIED OUT IN PARALLEL USING   4 THREADS ON 1 DOMAIN

     PARALLEL CONTACT TRACKING ENABLED


     COLLECTING MODEL CONSTRAINT INFORMATION FOR OVERCONSTRAINT CHECKS

     COLLECTING STEP CONSTRAINT INFORMATION FOR OVERCONSTRAINT CHECKS


  INCREMENT     1 STARTS. ATTEMPT NUMBER  1, TIME INCREMENT  1.000E-02
 
     INITIAL ELEMENT LOAD BALANCE
            DOMAIN    1     THREAD    NUMBER OF ELEMENTS
                              1            440
                              2            469
                              3            472
                              4            456
 
	SYMMETRIC DIRECT SPARSE SOLVER RUNNING ON
 	1 HOST:        1 MPI RANK  x 4 THREADS
 	NUMBER OF EQUATIONS:     11880
 	NUMBER OF RHS:           1
 	NUMBER OF FLOPS:         2.045e+08

     CHECK POINT  START OF SOLVER     

     CHECK POINT  END OF SOLVER       

       ELAPSED USER TIME (SEC)      =  0.20000    
       ELAPSED SYSTEM TIME (SEC)    =   0.0000    
       ELAPSED TOTAL CPU TIME (SEC) =  0.20000    
       ELAPSED WALLCLOCK TIME (SEC) =            0

               CONVERGENCE CHECKS FOR EQUILIBRIUM ITERATION     1


 AVERAGE FORCE                      8.645E-03   TIME AVG. FORCE       8.645E-03
 LARGEST RESIDUAL FORCE            -1.652E-14   AT NODE        203   DOF  2
   INSTANCE: COMPOSITE-1                                                                     
 LARGEST INCREMENT OF DISP.         1.094E-03   AT NODE       1967   DOF  2
   INSTANCE: COMPOSITE-1                                                                     
 LARGEST CORRECTION TO DISP.        1.094E-03   AT NODE       1967   DOF  2
   INSTANCE: COMPOSITE-1                                                                     
          THE FORCE     EQUILIBRIUM RESPONSE WAS LINEAR IN THIS INCREMENT

 ITERATION SUMMARY FOR THE INCREMENT:   1 TOTAL ITERATIONS, OF WHICH
   0 ARE SEVERE DISCONTINUITY ITERATIONS AND  1 ARE EQUILIBRIUM ITERATIONS.

 TIME INCREMENT COMPLETED  1.000E-02,  FRACTION OF STEP COMPLETED  1.000E-02
 STEP TIME COMPLETED       1.000E-02,  TOTAL TIME COMPLETED        1.000E-02


  INCREMENT     2 STARTS. ATTEMPT NUMBER  1, TIME INCREMENT  1.000E-02


     ***THE INITIAL STATIC STABILIZATION DAMPING FACTOR HAS BEEN CALCULATED.
     ITS STARTING VALUE OF  8.18283E-03 WILL BE ADJUSTED BASED ON THE 
     CONVERGENCE HISTORY AND ACCURACY TOLERANCE THROUGH THE STEP 
 
	SYMMETRIC DIRECT SPARSE SOLVER RUNNING ON
 	1 HOST:        1 MPI RANK  x 4 THREADS
 	NUMBER OF EQUATIONS:     11880
 	NUMBER OF RHS:           1
 	NUMBER OF FLOPS:         2.045e+08

     CHECK POINT  START OF SOLVER     

     CHECK POINT  END OF SOLVER       

       ELAPSED USER TIME (SEC)      =  0.10000    
       ELAPSED SYSTEM TIME (SEC)    =   0.0000    
       ELAPSED TOTAL CPU TIME (SEC) =  0.10000    
       ELAPSED WALLCLOCK TIME (SEC) =            0

               CONVERGENCE CHECKS FOR EQUILIBRIUM ITERATION     1


 AVERAGE FORCE                      3.591E-02   TIME AVG. FORCE       2.228E-02
 LARGEST RESIDUAL FORCE             1.262E-06   AT NODE        591   DOF  2
   INSTANCE: COMPOSITE-1                                                                     
 LARGEST INCREMENT OF DISP.         1.107E-03   AT NODE          5   DOF  2
   INSTANCE: COMPOSITE-1                                                                     
 LARGEST CORRECTION TO DISP.        1.295E-05   AT NODE       2083   DOF  2
   INSTANCE: COMPOSITE-1                                                                     
 ESTIMATE OF DISP.    CORRECTION    2.306E-07
 FORCE     EQUILIB. ACCEPTED BASED ON SMALL RESIDUAL AND ESTIMATED CORRECTION
          TIME INCREMENT MAY NOW INCREASE TO    1.500E-02

 ITERATION SUMMARY FOR THE INCREMENT:   1 TOTAL ITERATIONS, OF WHICH
   0 ARE SEVERE DISCONTINUITY ITERATIONS AND  1 ARE EQUILIBRIUM ITERATIONS.

 TIME INCREMENT COMPLETED  1.000E-02,  FRACTION OF STEP COMPLETED  2.000E-02
 STEP TIME COMPLETED       2.000E-02,  TOTAL TIME COMPLETED        2.000E-02


  INCREMENT     3 STARTS. ATTEMPT NUMBER  1, TIME INCREMENT  1.500E-02
 
	SYMMETRIC DIRECT SPARSE SOLVER RUNNING ON
 	1 HOST:        1 MPI RANK  x 4 THREADS
 	NUMBER OF EQUATIONS:     11880
 	NUMBER OF RHS:           1
 	NUMBER OF FLOPS:         2.045e+08

     CHECK POINT  START OF SOLVER     

     CHECK POINT  END OF SOLVER       

       ELAPSED USER TIME (SEC)      =  0.10000    
       ELAPSED SYSTEM TIME (SEC)    =   0.0000    
       ELAPSED TOTAL CPU TIME (SEC) =  0.10000    
       ELAPSED WALLCLOCK TIME (SEC) =            0

               CONVERGENCE CHECKS FOR EQUILIBRIUM ITERATION     1


 AVERAGE FORCE                      6.296E-02   TIME AVG. FORCE       3.584E-02
 LARGEST RESIDUAL FORCE            -1.246E-14   AT NODE       2958   DOF  2
   INSTANCE: COMPOSITE-1                                                                     
 LARGEST INCREMENT OF DISP.         1.659E-03   AT NODE          5   DOF  2
   INSTANCE: COMPOSITE-1                                                                     
 LARGEST CORRECTION TO DISP.       -1.501E-06   AT NODE       2083   DOF  2
   INSTANCE: COMPOSITE-1                                                                     
          THE FORCE     EQUILIBRIUM RESPONSE WAS LINEAR IN THIS INCREMENT
          TIME INCREMENT MAY NOW INCREASE TO    2.250E-02

 ITERATION SUMMARY FOR THE INCREMENT:   1 TOTAL ITERATIONS, OF WHICH
   0 ARE SEVERE DISCONTINUITY ITERATIONS AND  1 ARE EQUILIBRIUM ITERATIONS.

 TIME INCREMENT COMPLETED  1.500E-02,  FRACTION OF STEP COMPLETED  3.500E-02
 STEP TIME COMPLETED       3.500E-02,  TOTAL TIME COMPLETED        3.500E-02


  INCREMENT     4 STARTS. ATTEMPT NUMBER  1, TIME INCREMENT  2.250E-02
 
	SYMMETRIC DIRECT SPARSE SOLVER RUNNING ON
 	1 HOST:        1 MPI RANK  x 4 THREADS
 	NUMBER OF EQUATIONS:     11880
 	NUMBER OF RHS:           1
 	NUMBER OF FLOPS:         2.045e+08

     CHECK POINT  START OF SOLVER     

     CHECK POINT  END OF SOLVER       

       ELAPSED USER TIME (SEC)      =   0.0000    
       ELAPSED SYSTEM TIME (SEC)    =   0.0000    
       ELAPSED TOTAL CPU TIME (SEC) =   0.0000    
       ELAPSED WALLCLOCK TIME (SEC) =            0

               CONVERGENCE CHECKS FOR EQUILIBRIUM ITERATION     1


 AVERAGE FORCE                      0.104       TIME AVG. FORCE       5.277E-02
 LARGEST RESIDUAL FORCE            -6.464E-10   AT NODE        203   DOF  2
   INSTANCE: COMPOSITE-1                                                                     
 LARGEST INCREMENT OF DISP.         2.489E-03   AT NODE       1967   DOF  2
   INSTANCE: COMPOSITE-1                                                                     
 LARGEST CORRECTION TO DISP.       -7.298E-08   AT NODE       2084   DOF  2
   INSTANCE: COMPOSITE-1                                                                     
          THE FORCE     EQUILIBRIUM EQUATIONS HAVE CONVERGED
          TIME INCREMENT MAY NOW INCREASE TO    3.375E-02

 ITERATION SUMMARY FOR THE INCREMENT:   1 TOTAL ITERATIONS, OF WHICH
   0 ARE SEVERE DISCONTINUITY ITERATIONS AND  1 ARE EQUILIBRIUM ITERATIONS.

 TIME INCREMENT COMPLETED  2.250E-02,  FRACTION OF STEP COMPLETED  5.750E-02
 STEP TIME COMPLETED       5.750E-02,  TOTAL TIME COMPLETED        5.750E-02


  INCREMENT     5 STARTS. ATTEMPT NUMBER  1, TIME INCREMENT  3.375E-02
 
	SYMMETRIC DIRECT SPARSE SOLVER RUNNING ON
 	1 HOST:        1 MPI RANK  x 4 THREADS
 	NUMBER OF EQUATIONS:     11880
 	NUMBER OF RHS:           1
 	NUMBER OF FLOPS:         2.045e+08

     CHECK POINT  START OF SOLVER     

     CHECK POINT  END OF SOLVER       

       ELAPSED USER TIME (SEC)      =  0.10000    
       ELAPSED SYSTEM TIME (SEC)    =   0.0000    
       ELAPSED TOTAL CPU TIME (SEC) =  0.10000    
       ELAPSED WALLCLOCK TIME (SEC) =            0

               CONVERGENCE CHECKS FOR EQUILIBRIUM ITERATION     1


 AVERAGE FORCE                      0.164       TIME AVG. FORCE       7.510E-02
 LARGEST RESIDUAL FORCE            -1.921E-14   AT NODE       2924   DOF  2
   INSTANCE: COMPOSITE-1                                                                     
 LARGEST INCREMENT OF DISP.         3.734E-03   AT NODE          5   DOF  2
   INSTANCE: COMPOSITE-1                                                                     
 LARGEST CORRECTION TO DISP.       -8.748E-09   AT NODE       1967   DOF  2
   INSTANCE: COMPOSITE-1                                                                     
          THE FORCE     EQUILIBRIUM RESPONSE WAS LINEAR IN THIS INCREMENT
          TIME INCREMENT MAY NOW INCREASE TO    5.063E-02

 ITERATION SUMMARY FOR THE INCREMENT:   1 TOTAL ITERATIONS, OF WHICH
   0 ARE SEVERE DISCONTINUITY ITERATIONS AND  1 ARE EQUILIBRIUM ITERATIONS.

 TIME INCREMENT COMPLETED  3.375E-02,  FRACTION OF STEP COMPLETED  9.125E-02
 STEP TIME COMPLETED       9.125E-02,  TOTAL TIME COMPLETED        9.125E-02


  INCREMENT     6 STARTS. ATTEMPT NUMBER  1, TIME INCREMENT  5.063E-02

 ***NOTE: THE FRACTURE CRITERION f=1.2393 AT ELEMENT 1389, THE DAMAGE 
          INITIATION TOLERANCE HAS BEEN EXCEEDED AND CUTBACK IS REQUIRED.
 
	SYMMETRIC DIRECT SPARSE SOLVER RUNNING ON
 	1 HOST:        1 MPI RANK  x 4 THREADS
 	NUMBER OF EQUATIONS:     11880
 	NUMBER OF RHS:           1
 	NUMBER OF FLOPS:         2.045e+08

     CHECK POINT  START OF SOLVER     

     CHECK POINT  END OF SOLVER       

       ELAPSED USER TIME (SEC)      =  0.10000    
       ELAPSED SYSTEM TIME (SEC)    =   0.0000    
       ELAPSED TOTAL CPU TIME (SEC) =  0.10000    
       ELAPSED WALLCLOCK TIME (SEC) =            0

 ***NOTE: THE FRACTURE CRITERION f=1.2393 AT ELEMENT 1389, THE DAMAGE 
          INITIATION TOLERANCE HAS BEEN EXCEEDED AND CUTBACK IS REQUIRED.


  INCREMENT     6 STARTS. ATTEMPT NUMBER  2, TIME INCREMENT  4.085E-02

 ***NOTE: THE FRACTURE CRITERION f=1.1538 AT ELEMENT 1389, THE DAMAGE 
          INITIATION TOLERANCE HAS BEEN EXCEEDED AND CUTBACK IS REQUIRED.
 
	SYMMETRIC DIRECT SPARSE SOLVER RUNNING ON
 	1 HOST:        1 MPI RANK  x 4 THREADS
 	NUMBER OF EQUATIONS:     11880
 	NUMBER OF RHS:           1
 	NUMBER OF FLOPS:         2.045e+08

     CHECK POINT  START OF SOLVER     

     CHECK POINT  END OF SOLVER       

       ELAPSED USER TIME (SEC)      =  0.10000    
       ELAPSED SYSTEM TIME (SEC)    =   0.0000    
       ELAPSED TOTAL CPU TIME (SEC) =  0.10000    
       ELAPSED WALLCLOCK TIME (SEC) =            0

 ***NOTE: THE FRACTURE CRITERION f=1.1538 AT ELEMENT 1389, THE DAMAGE 
          INITIATION TOLERANCE HAS BEEN EXCEEDED AND CUTBACK IS REQUIRED.


  INCREMENT     6 STARTS. ATTEMPT NUMBER  3, TIME INCREMENT  1.770E-02
 
	SYMMETRIC DIRECT SPARSE SOLVER RUNNING ON
 	1 HOST:        1 MPI RANK  x 4 THREADS
 	NUMBER OF EQUATIONS:     11880
 	NUMBER OF RHS:           1
 	NUMBER OF FLOPS:         2.045e+08

     CHECK POINT  START OF SOLVER     

     CHECK POINT  END OF SOLVER       

       ELAPSED USER TIME (SEC)      =  0.10000    
       ELAPSED SYSTEM TIME (SEC)    =   0.0000    
       ELAPSED TOTAL CPU TIME (SEC) =  0.10000    
       ELAPSED WALLCLOCK TIME (SEC) =            0

               CONVERGENCE CHECKS FOR EQUILIBRIUM ITERATION     1


 AVERAGE FORCE                      0.196       TIME AVG. FORCE       9.531E-02
 LARGEST RESIDUAL FORCE            -1.060E-14   AT NODE        177   DOF  2
   INSTANCE: COMPOSITE-1                                                                     
 LARGEST INCREMENT OF DISP.         1.958E-03   AT NODE          5   DOF  2
   INSTANCE: COMPOSITE-1                                                                     
 LARGEST CORRECTION TO DISP.       -6.058E-09   AT NODE       1967   DOF  2
   INSTANCE: COMPOSITE-1                                                                     
          THE FORCE     EQUILIBRIUM RESPONSE WAS LINEAR IN THIS INCREMENT
          TIME INCREMENT MAY NOW INCREASE TO    2.655E-02

 ITERATION SUMMARY FOR THE INCREMENT:   1 TOTAL ITERATIONS, OF WHICH
   0 ARE SEVERE DISCONTINUITY ITERATIONS AND  1 ARE EQUILIBRIUM ITERATIONS.

 TIME INCREMENT COMPLETED  1.770E-02,  FRACTION OF STEP COMPLETED  0.109    
 STEP TIME COMPLETED       0.109    ,  TOTAL TIME COMPLETED        0.109    


  INCREMENT     7 STARTS. ATTEMPT NUMBER  1, TIME INCREMENT  2.655E-02

 ***NOTE: THE FRACTURE CRITERION f=1.1836 AT ELEMENT 1389, THE DAMAGE 
          INITIATION TOLERANCE HAS BEEN EXCEEDED AND CUTBACK IS REQUIRED.
 
	SYMMETRIC DIRECT SPARSE SOLVER RUNNING ON
 	1 HOST:        1 MPI RANK  x 4 THREADS
 	NUMBER OF EQUATIONS:     11880
 	NUMBER OF RHS:           1
 	NUMBER OF FLOPS:         2.045e+08

     CHECK POINT  START OF SOLVER     

     CHECK POINT  END OF SOLVER       

       ELAPSED USER TIME (SEC)      =  0.10000    
       ELAPSED SYSTEM TIME (SEC)    =   0.0000    
       ELAPSED TOTAL CPU TIME (SEC) =  0.10000    
       ELAPSED WALLCLOCK TIME (SEC) =            0

 ***NOTE: THE FRACTURE CRITERION f=1.1836 AT ELEMENT 1389, THE DAMAGE 
          INITIATION TOLERANCE HAS BEEN EXCEEDED AND CUTBACK IS REQUIRED.


  INCREMENT     7 STARTS. ATTEMPT NUMBER  2, TIME INCREMENT  2.244E-02

 ***NOTE: THE FRACTURE CRITERION f=1.1476 AT ELEMENT 1389, THE DAMAGE 
          INITIATION TOLERANCE HAS BEEN EXCEEDED AND CUTBACK IS REQUIRED.
 
	SYMMETRIC DIRECT SPARSE SOLVER RUNNING ON
 	1 HOST:        1 MPI RANK  x 4 THREADS
 	NUMBER OF EQUATIONS:     11880
 	NUMBER OF RHS:           1
 	NUMBER OF FLOPS:         2.045e+08

     CHECK POINT  START OF SOLVER     

     CHECK POINT  END OF SOLVER       

       ELAPSED USER TIME (SEC)      =  0.10000    
       ELAPSED SYSTEM TIME (SEC)    =   0.0000    
       ELAPSED TOTAL CPU TIME (SEC) =  0.10000    
       ELAPSED WALLCLOCK TIME (SEC) =            0

 ***NOTE: THE FRACTURE CRITERION f=1.1476 AT ELEMENT 1389, THE DAMAGE 
          INITIATION TOLERANCE HAS BEEN EXCEEDED AND CUTBACK IS REQUIRED.


  INCREMENT     7 STARTS. ATTEMPT NUMBER  3, TIME INCREMENT  9.775E-03
 
	SYMMETRIC DIRECT SPARSE SOLVER RUNNING ON
 	1 HOST:        1 MPI RANK  x 4 THREADS
 	NUMBER OF EQUATIONS:     11880
 	NUMBER OF RHS:           1
 	NUMBER OF FLOPS:         2.045e+08

     CHECK POINT  START OF SOLVER     

     CHECK POINT  END OF SOLVER       

       ELAPSED USER TIME (SEC)      =   0.0000    
       ELAPSED SYSTEM TIME (SEC)    =   0.0000    
       ELAPSED TOTAL CPU TIME (SEC) =   0.0000    
       ELAPSED WALLCLOCK TIME (SEC) =            0

               CONVERGENCE CHECKS FOR EQUILIBRIUM ITERATION     1


 AVERAGE FORCE                      0.214       TIME AVG. FORCE       0.112    
 LARGEST RESIDUAL FORCE            -4.913E-15   AT NODE        204   DOF  2
   INSTANCE: COMPOSITE-1                                                                     
 LARGEST INCREMENT OF DISP.         1.081E-03   AT NODE       1967   DOF  2
   INSTANCE: COMPOSITE-1                                                                     
 LARGEST CORRECTION TO DISP.       -1.724E-09   AT NODE          5   DOF  2
   INSTANCE: COMPOSITE-1                                                                     
          THE FORCE     EQUILIBRIUM RESPONSE WAS LINEAR IN THIS INCREMENT
          TIME INCREMENT MAY NOW INCREASE TO    1.466E-02

 ITERATION SUMMARY FOR THE INCREMENT:   1 TOTAL ITERATIONS, OF WHICH
   0 ARE SEVERE DISCONTINUITY ITERATIONS AND  1 ARE EQUILIBRIUM ITERATIONS.

 TIME INCREMENT COMPLETED  9.775E-03,  FRACTION OF STEP COMPLETED  0.119    
 STEP TIME COMPLETED       0.119    ,  TOTAL TIME COMPLETED        0.119    


  INCREMENT     8 STARTS. ATTEMPT NUMBER  1, TIME INCREMENT  1.466E-02
 
	SYMMETRIC DIRECT SPARSE SOLVER RUNNING ON
 	1 HOST:        1 MPI RANK  x 4 THREADS
 	NUMBER OF EQUATIONS:     11892
 	NUMBER OF RHS:           1
 	NUMBER OF FLOPS:         2.065e+08

     CHECK POINT  START OF SOLVER     

     CHECK POINT  END OF SOLVER       

       ELAPSED USER TIME (SEC)      =   0.0000    
       ELAPSED SYSTEM TIME (SEC)    =   0.0000    
       ELAPSED TOTAL CPU TIME (SEC) =   0.0000    
       ELAPSED WALLCLOCK TIME (SEC) =            0

 ***NOTE: THE FRACTURE CRITERION f=1.1296 AT ELEMENT 546, THE DAMAGE INITIATION 
          TOLERANCE HAS BEEN EXCEEDED AND CUTBACK IS REQUIRED.


  INCREMENT     8 STARTS. ATTEMPT NUMBER  2, TIME INCREMENT  1.298E-02
 
	SYMMETRIC DIRECT SPARSE SOLVER RUNNING ON
 	1 HOST:        1 MPI RANK  x 4 THREADS
 	NUMBER OF EQUATIONS:     11892
 	NUMBER OF RHS:           1
 	NUMBER OF FLOPS:         2.065e+08

     CHECK POINT  START OF SOLVER     

     CHECK POINT  END OF SOLVER       

       ELAPSED USER TIME (SEC)      =  0.10000    
       ELAPSED SYSTEM TIME (SEC)    =   0.0000    
       ELAPSED TOTAL CPU TIME (SEC) =  0.10000    
       ELAPSED WALLCLOCK TIME (SEC) =            0

 ***NOTE: THE FRACTURE CRITERION f=1.1151 AT ELEMENT 546, THE DAMAGE INITIATION 
          TOLERANCE HAS BEEN EXCEEDED AND CUTBACK IS REQUIRED.


  INCREMENT     8 STARTS. ATTEMPT NUMBER  3, TIME INCREMENT  5.820E-03
 
	SYMMETRIC DIRECT SPARSE SOLVER RUNNING ON
 	1 HOST:        1 MPI RANK  x 4 THREADS
 	NUMBER OF EQUATIONS:     11892
 	NUMBER OF RHS:           1
 	NUMBER OF FLOPS:         2.065e+08

     CHECK POINT  START OF SOLVER     

     CHECK POINT  END OF SOLVER       

       ELAPSED USER TIME (SEC)      =  0.10000    
       ELAPSED SYSTEM TIME (SEC)    =   0.0000    
       ELAPSED TOTAL CPU TIME (SEC) =  0.10000    
       ELAPSED WALLCLOCK TIME (SEC) =            0

 ***NOTE: THE FRACTURE CRITERION f=1.0532 AT ELEMENT 546, THE DAMAGE INITIATION 
          TOLERANCE HAS BEEN EXCEEDED AND CUTBACK IS REQUIRED.


  INCREMENT     8 STARTS. ATTEMPT NUMBER  4, TIME INCREMENT  1.842E-03
 
	SYMMETRIC DIRECT SPARSE SOLVER RUNNING ON
 	1 HOST:        1 MPI RANK  x 4 THREADS
 	NUMBER OF EQUATIONS:     11892
 	NUMBER OF RHS:           1
 	NUMBER OF FLOPS:         2.065e+08

     CHECK POINT  START OF SOLVER     

     CHECK POINT  END OF SOLVER       

       ELAPSED USER TIME (SEC)      =  0.10000    
       ELAPSED SYSTEM TIME (SEC)    =   0.0000    
       ELAPSED TOTAL CPU TIME (SEC) =  0.10000    
       ELAPSED WALLCLOCK TIME (SEC) =            0

               CONVERGENCE CHECKS FOR EQUILIBRIUM ITERATION     1


 AVERAGE FORCE                      0.218       TIME AVG. FORCE       0.125    
 LARGEST RESIDUAL FORCE             9.574E-04   AT NODE       1486   DOF  2
   INSTANCE: COMPOSITE-1                                                                     
 LARGEST INCREMENT OF DISP.         3.198E-03   AT NODE       1486   DOF  2
   INSTANCE: COMPOSITE-1                                                                     
 LARGEST CORRECTION TO DISP.        3.105E-03   AT NODE       1486   DOF  2
   INSTANCE: COMPOSITE-1                                                                     
          FORCE     EQUILIBRIUM NOT ACHIEVED WITHIN TOLERANCE.
 
	SYMMETRIC DIRECT SPARSE SOLVER RUNNING ON
 	1 HOST:        1 MPI RANK  x 4 THREADS
 	NUMBER OF EQUATIONS:     11892
 	NUMBER OF RHS:           1
 	NUMBER OF FLOPS:         2.065e+08

     CHECK POINT  START OF SOLVER     

     CHECK POINT  END OF SOLVER       

       ELAPSED USER TIME (SEC)      =  0.20000    
       ELAPSED SYSTEM TIME (SEC)    =   0.0000    
       ELAPSED TOTAL CPU TIME (SEC) =  0.20000    
       ELAPSED WALLCLOCK TIME (SEC) =            0

               CONVERGENCE CHECKS FOR EQUILIBRIUM ITERATION     2


 AVERAGE FORCE                      0.218       TIME AVG. FORCE       0.125    
 LARGEST RESIDUAL FORCE             7.339E-07   AT NODE       3448   DOF  2
   INSTANCE: COMPOSITE-1                                                                     
 LARGEST INCREMENT OF DISP.         3.199E-03   AT NODE       3448   DOF  2
   INSTANCE: COMPOSITE-1                                                                     
 LARGEST CORRECTION TO DISP.       -4.490E-06   AT NODE       3877   DOF  2
   INSTANCE: COMPOSITE-1                                                                     
          THE FORCE     EQUILIBRIUM EQUATIONS HAVE CONVERGED
          TIME INCREMENT MAY NOW INCREASE TO    2.763E-03

 ITERATION SUMMARY FOR THE INCREMENT:   2 TOTAL ITERATIONS, OF WHICH
   0 ARE SEVERE DISCONTINUITY ITERATIONS AND  2 ARE EQUILIBRIUM ITERATIONS.

 TIME INCREMENT COMPLETED  1.842E-03,  FRACTION OF STEP COMPLETED  0.121    
 STEP TIME COMPLETED       0.121    ,  TOTAL TIME COMPLETED        0.121    


  INCREMENT     9 STARTS. ATTEMPT NUMBER  1, TIME INCREMENT  2.763E-03
 
	SYMMETRIC DIRECT SPARSE SOLVER RUNNING ON
 	1 HOST:        1 MPI RANK  x 4 THREADS
 	NUMBER OF EQUATIONS:     11904
 	NUMBER OF RHS:           1
 	NUMBER OF FLOPS:         2.090e+08

     CHECK POINT  START OF SOLVER     

     CHECK POINT  END OF SOLVER       

       ELAPSED USER TIME (SEC)      =   0.0000    
       ELAPSED SYSTEM TIME (SEC)    =  0.10000    
       ELAPSED TOTAL CPU TIME (SEC) =  0.10000    
       ELAPSED WALLCLOCK TIME (SEC) =            0
 

 ***WARNING: THE SYSTEM MATRIX HAS 1 NEGATIVE EIGENVALUES.

     NEGATIVE EIGENVALUES MEAN THAT THE SYSTEM MATRIX IS NOT 
     POSITIVE DEFINITE:
     FOR EXAMPLE, A BIFURCATION (BUCKLING) LOAD MAY HAVE BEEN EXCEEDED.

               CONVERGENCE CHECKS FOR EQUILIBRIUM ITERATION     1


 AVERAGE FORCE                      0.226       TIME AVG. FORCE       0.137    
 LARGEST RESIDUAL FORCE             -26.7       AT NODE        279   DOF  2
   INSTANCE: COMPOSITE-1                                                                     
 LARGEST INCREMENT OF DISP.         1.442E-03   AT NODE        279   DOF  2
   INSTANCE: COMPOSITE-1                                                                     
 LARGEST CORRECTION TO DISP.       -4.313E-03   AT NODE       3448   DOF  2
   INSTANCE: COMPOSITE-1                                                                     
          FORCE     EQUILIBRIUM NOT ACHIEVED WITHIN TOLERANCE.
 
	SYMMETRIC DIRECT SPARSE SOLVER RUNNING ON
 	1 HOST:        1 MPI RANK  x 4 THREADS
 	NUMBER OF EQUATIONS:     11904
 	NUMBER OF RHS:           1
 	NUMBER OF FLOPS:         2.090e+08

     CHECK POINT  START OF SOLVER     

     CHECK POINT  END OF SOLVER       

       ELAPSED USER TIME (SEC)      =  0.10000    
       ELAPSED SYSTEM TIME (SEC)    =   0.0000    
       ELAPSED TOTAL CPU TIME (SEC) =  0.10000    
       ELAPSED WALLCLOCK TIME (SEC) =            0

               CONVERGENCE CHECKS FOR EQUILIBRIUM ITERATION     2


 AVERAGE FORCE                      0.223       TIME AVG. FORCE       0.136    
 LARGEST RESIDUAL FORCE             -1.67       AT NODE       2241   DOF  2
   INSTANCE: COMPOSITE-1                                                                     
 LARGEST INCREMENT OF DISP.         3.570E-04   AT NODE       2241   DOF  2
   INSTANCE: COMPOSITE-1                                                                     
 LARGEST CORRECTION TO DISP.        1.300E-03   AT NODE       1451   DOF  2
   INSTANCE: COMPOSITE-1                                                                     
          FORCE     EQUILIBRIUM NOT ACHIEVED WITHIN TOLERANCE.
 
	SYMMETRIC DIRECT SPARSE SOLVER RUNNING ON
 	1 HOST:        1 MPI RANK  x 4 THREADS
 	NUMBER OF EQUATIONS:     11904
 	NUMBER OF RHS:           1
 	NUMBER OF FLOPS:         2.090e+08

     CHECK POINT  START OF SOLVER     

     CHECK POINT  END OF SOLVER       

       ELAPSED USER TIME (SEC)      =  0.10000    
       ELAPSED SYSTEM TIME (SEC)    =   0.0000    
       ELAPSED TOTAL CPU TIME (SEC) =  0.10000    
       ELAPSED WALLCLOCK TIME (SEC) =            0

               CONVERGENCE CHECKS FOR EQUILIBRIUM ITERATION     3


 AVERAGE FORCE                      0.224       TIME AVG. FORCE       0.136    
 LARGEST RESIDUAL FORCE            -3.064E-14   AT NODE        279   DOF  2
   INSTANCE: COMPOSITE-1                                                                     
 LARGEST INCREMENT OF DISP.         4.377E-04   AT NODE       2586   DOF  2
   INSTANCE: COMPOSITE-1                                                                     
 LARGEST CORRECTION TO DISP.        2.609E-04   AT NODE       3448   DOF  2
   INSTANCE: COMPOSITE-1                                                                     
          THE FORCE     EQUILIBRIUM EQUATIONS HAVE CONVERGED
          TIME INCREMENT MAY NOW INCREASE TO    4.145E-03

 ITERATION SUMMARY FOR THE INCREMENT:   3 TOTAL ITERATIONS, OF WHICH
   0 ARE SEVERE DISCONTINUITY ITERATIONS AND  3 ARE EQUILIBRIUM ITERATIONS.

 TIME INCREMENT COMPLETED  2.763E-03,  FRACTION OF STEP COMPLETED  0.123    
 STEP TIME COMPLETED       0.123    ,  TOTAL TIME COMPLETED        0.123    


  INCREMENT    10 STARTS. ATTEMPT NUMBER  1, TIME INCREMENT  4.145E-03
 
	SYMMETRIC DIRECT SPARSE SOLVER RUNNING ON
 	1 HOST:        1 MPI RANK  x 4 THREADS
 	NUMBER OF EQUATIONS:     11904
 	NUMBER OF RHS:           1
 	NUMBER OF FLOPS:         2.090e+08

     CHECK POINT  START OF SOLVER     

     CHECK POINT  END OF SOLVER       

       ELAPSED USER TIME (SEC)      =  0.10000    
       ELAPSED SYSTEM TIME (SEC)    =   0.0000    
       ELAPSED TOTAL CPU TIME (SEC) =  0.10000    
       ELAPSED WALLCLOCK TIME (SEC) =            0

               CONVERGENCE CHECKS FOR EQUILIBRIUM ITERATION     1


 AVERAGE FORCE                      0.231       TIME AVG. FORCE       0.146    
 LARGEST RESIDUAL FORCE             3.456E-06   AT NODE       2645   DOF  2
   INSTANCE: COMPOSITE-1                                                                     
 LARGEST INCREMENT OF DISP.         4.988E-04   AT NODE          5   DOF  2
   INSTANCE: COMPOSITE-1                                                                     
 LARGEST CORRECTION TO DISP.       -2.881E-04   AT NODE       1486   DOF  2
   INSTANCE: COMPOSITE-1                                                                     
 ESTIMATE OF DISP.    CORRECTION   -3.826E-10
 FORCE     EQUILIB. ACCEPTED BASED ON SMALL RESIDUAL AND ESTIMATED CORRECTION
          TIME INCREMENT MAY NOW INCREASE TO    6.217E-03

 ITERATION SUMMARY FOR THE INCREMENT:   1 TOTAL ITERATIONS, OF WHICH
   0 ARE SEVERE DISCONTINUITY ITERATIONS AND  1 ARE EQUILIBRIUM ITERATIONS.

 TIME INCREMENT COMPLETED  4.145E-03,  FRACTION OF STEP COMPLETED  0.127    
 STEP TIME COMPLETED       0.127    ,  TOTAL TIME COMPLETED        0.127    


  INCREMENT    11 STARTS. ATTEMPT NUMBER  1, TIME INCREMENT  6.217E-03
 
	SYMMETRIC DIRECT SPARSE SOLVER RUNNING ON
 	1 HOST:        1 MPI RANK  x 4 THREADS
 	NUMBER OF EQUATIONS:     11904
 	NUMBER OF RHS:           1
 	NUMBER OF FLOPS:         2.090e+08

     CHECK POINT  START OF SOLVER     

     CHECK POINT  END OF SOLVER       

       ELAPSED USER TIME (SEC)      =  0.10000    
       ELAPSED SYSTEM TIME (SEC)    =   0.0000    
       ELAPSED TOTAL CPU TIME (SEC) =  0.10000    
       ELAPSED WALLCLOCK TIME (SEC) =            0

               CONVERGENCE CHECKS FOR EQUILIBRIUM ITERATION     1


 AVERAGE FORCE                      0.242       TIME AVG. FORCE       0.155    
 LARGEST RESIDUAL FORCE             6.927E-11   AT NODE       2241   DOF  2
   INSTANCE: COMPOSITE-1                                                                     
 LARGEST INCREMENT OF DISP.         7.433E-04   AT NODE       1967   DOF  2
   INSTANCE: COMPOSITE-1                                                                     
 LARGEST CORRECTION TO DISP.       -5.005E-06   AT NODE        539   DOF  2
   INSTANCE: COMPOSITE-1                                                                     
          THE FORCE     EQUILIBRIUM RESPONSE WAS LINEAR IN THIS INCREMENT
          TIME INCREMENT MAY NOW INCREASE TO    9.325E-03

 ITERATION SUMMARY FOR THE INCREMENT:   1 TOTAL ITERATIONS, OF WHICH
   0 ARE SEVERE DISCONTINUITY ITERATIONS AND  1 ARE EQUILIBRIUM ITERATIONS.

 TIME INCREMENT COMPLETED  6.217E-03,  FRACTION OF STEP COMPLETED  0.134    
 STEP TIME COMPLETED       0.134    ,  TOTAL TIME COMPLETED        0.134    


  INCREMENT    12 STARTS. ATTEMPT NUMBER  1, TIME INCREMENT  9.325E-03
 
	SYMMETRIC DIRECT SPARSE SOLVER RUNNING ON
 	1 HOST:        1 MPI RANK  x 4 THREADS
 	NUMBER OF EQUATIONS:     11904
 	NUMBER OF RHS:           1
 	NUMBER OF FLOPS:         2.090e+08

     CHECK POINT  START OF SOLVER     

     CHECK POINT  END OF SOLVER       

       ELAPSED USER TIME (SEC)      =  0.10000    
       ELAPSED SYSTEM TIME (SEC)    =   0.0000    
       ELAPSED TOTAL CPU TIME (SEC) =  0.10000    
       ELAPSED WALLCLOCK TIME (SEC) =            0

               CONVERGENCE CHECKS FOR EQUILIBRIUM ITERATION     1


 AVERAGE FORCE                      0.259       TIME AVG. FORCE       0.163    
 LARGEST RESIDUAL FORCE            -1.973E-10   AT NODE        279   DOF  2
   INSTANCE: COMPOSITE-1                                                                     
 LARGEST INCREMENT OF DISP.         1.116E-03   AT NODE       1967   DOF  2
   INSTANCE: COMPOSITE-1                                                                     
 LARGEST CORRECTION TO DISP.        2.029E-06   AT NODE       3448   DOF  2
   INSTANCE: COMPOSITE-1                                                                     
          THE FORCE     EQUILIBRIUM RESPONSE WAS LINEAR IN THIS INCREMENT
          TIME INCREMENT MAY NOW INCREASE TO    1.399E-02

 ITERATION SUMMARY FOR THE INCREMENT:   1 TOTAL ITERATIONS, OF WHICH
   0 ARE SEVERE DISCONTINUITY ITERATIONS AND  1 ARE EQUILIBRIUM ITERATIONS.

 TIME INCREMENT COMPLETED  9.325E-03,  FRACTION OF STEP COMPLETED  0.143    
 STEP TIME COMPLETED       0.143    ,  TOTAL TIME COMPLETED        0.143    


  INCREMENT    13 STARTS. ATTEMPT NUMBER  1, TIME INCREMENT  1.399E-02
 
	SYMMETRIC DIRECT SPARSE SOLVER RUNNING ON
 	1 HOST:        1 MPI RANK  x 4 THREADS
 	NUMBER OF EQUATIONS:     11904
 	NUMBER OF RHS:           1
 	NUMBER OF FLOPS:         2.090e+08

     CHECK POINT  START OF SOLVER     

     CHECK POINT  END OF SOLVER       

       ELAPSED USER TIME (SEC)      =  0.10000    
       ELAPSED SYSTEM TIME (SEC)    =   0.0000    
       ELAPSED TOTAL CPU TIME (SEC) =  0.10000    
       ELAPSED WALLCLOCK TIME (SEC) =            0
 

 ***WARNING: THE SYSTEM MATRIX HAS 1 NEGATIVE EIGENVALUES.
             EXPLANATIONS ARE SUGGESTED AFTER THE FIRST OCCURRENCE OF THIS MESSAGE.

               CONVERGENCE CHECKS FOR EQUILIBRIUM ITERATION     1


 AVERAGE FORCE                      0.285       TIME AVG. FORCE       0.173    
 LARGEST RESIDUAL FORCE            -3.562E-03   AT NODE        279   DOF  2
   INSTANCE: COMPOSITE-1                                                                     
 LARGEST INCREMENT OF DISP.         1.730E-03   AT NODE          5   DOF  2
   INSTANCE: COMPOSITE-1                                                                     
 LARGEST CORRECTION TO DISP.        1.584E-04   AT NODE       3413   DOF  2
   INSTANCE: COMPOSITE-1                                                                     
          FORCE     EQUILIBRIUM NOT ACHIEVED WITHIN TOLERANCE.
 
	SYMMETRIC DIRECT SPARSE SOLVER RUNNING ON
 	1 HOST:        1 MPI RANK  x 4 THREADS
 	NUMBER OF EQUATIONS:     11904
 	NUMBER OF RHS:           1
 	NUMBER OF FLOPS:         2.090e+08

     CHECK POINT  START OF SOLVER     

     CHECK POINT  END OF SOLVER       

       ELAPSED USER TIME (SEC)      =  0.10000    
       ELAPSED SYSTEM TIME (SEC)    =   0.0000    
       ELAPSED TOTAL CPU TIME (SEC) =  0.10000    
       ELAPSED WALLCLOCK TIME (SEC) =            0
 

 ***WARNING: THE SYSTEM MATRIX HAS 1 NEGATIVE EIGENVALUES.
             EXPLANATIONS ARE SUGGESTED AFTER THE FIRST OCCURRENCE OF THIS MESSAGE.

               CONVERGENCE CHECKS FOR EQUILIBRIUM ITERATION     2


 AVERAGE FORCE                      0.285       TIME AVG. FORCE       0.173    
 LARGEST RESIDUAL FORCE            -2.535E-05   AT NODE        279   DOF  2
   INSTANCE: COMPOSITE-1                                                                     
 LARGEST INCREMENT OF DISP.         1.731E-03   AT NODE          5   DOF  2
   INSTANCE: COMPOSITE-1                                                                     
 LARGEST CORRECTION TO DISP.        4.543E-06   AT NODE       1451   DOF  2
   INSTANCE: COMPOSITE-1                                                                     
          THE FORCE     EQUILIBRIUM EQUATIONS HAVE CONVERGED
          TIME INCREMENT MAY NOW INCREASE TO    2.098E-02

 ITERATION SUMMARY FOR THE INCREMENT:   2 TOTAL ITERATIONS, OF WHICH
   0 ARE SEVERE DISCONTINUITY ITERATIONS AND  2 ARE EQUILIBRIUM ITERATIONS.

 TIME INCREMENT COMPLETED  1.399E-02,  FRACTION OF STEP COMPLETED  0.157    
 STEP TIME COMPLETED       0.157    ,  TOTAL TIME COMPLETED        0.157    


  INCREMENT    14 STARTS. ATTEMPT NUMBER  1, TIME INCREMENT  2.098E-02

 ***NOTE: THE FRACTURE CRITERION f=1.0580 AT ELEMENT 1332, THE DAMAGE 
          INITIATION TOLERANCE HAS BEEN EXCEEDED AND CUTBACK IS REQUIRED.
 
	SYMMETRIC DIRECT SPARSE SOLVER RUNNING ON
 	1 HOST:        1 MPI RANK  x 4 THREADS
 	NUMBER OF EQUATIONS:     11904
 	NUMBER OF RHS:           1
 	NUMBER OF FLOPS:         2.090e+08

     CHECK POINT  START OF SOLVER     

     CHECK POINT  END OF SOLVER       

       ELAPSED USER TIME (SEC)      =  0.10000    
       ELAPSED SYSTEM TIME (SEC)    =   0.0000    
       ELAPSED TOTAL CPU TIME (SEC) =  0.10000    
       ELAPSED WALLCLOCK TIME (SEC) =            0
 

 ***WARNING: THE SYSTEM MATRIX HAS 1 NEGATIVE EIGENVALUES.
             EXPLANATIONS ARE SUGGESTED AFTER THE FIRST OCCURRENCE OF THIS MESSAGE.

 ***NOTE: THE FRACTURE CRITERION f=1.2126 AT ELEMENT 1332, THE DAMAGE 
          INITIATION TOLERANCE HAS BEEN EXCEEDED AND CUTBACK IS REQUIRED.


  INCREMENT    14 STARTS. ATTEMPT NUMBER  2, TIME INCREMENT  1.730E-02
 
	SYMMETRIC DIRECT SPARSE SOLVER RUNNING ON
 	1 HOST:        1 MPI RANK  x 4 THREADS
 	NUMBER OF EQUATIONS:     11904
 	NUMBER OF RHS:           1
 	NUMBER OF FLOPS:         2.090e+08

     CHECK POINT  START OF SOLVER     

     CHECK POINT  END OF SOLVER       

       ELAPSED USER TIME (SEC)      =  0.20000    
       ELAPSED SYSTEM TIME (SEC)    =   0.0000    
       ELAPSED TOTAL CPU TIME (SEC) =  0.20000    
       ELAPSED WALLCLOCK TIME (SEC) =            0
 

 ***WARNING: THE SYSTEM MATRIX HAS 1 NEGATIVE EIGENVALUES.
             EXPLANATIONS ARE SUGGESTED AFTER THE FIRST OCCURRENCE OF THIS MESSAGE.

 ***NOTE: THE FRACTURE CRITERION f=1.1534 AT ELEMENT 1332, THE DAMAGE 
          INITIATION TOLERANCE HAS BEEN EXCEEDED AND CUTBACK IS REQUIRED.


  INCREMENT    14 STARTS. ATTEMPT NUMBER  3, TIME INCREMENT  7.501E-03
 
	SYMMETRIC DIRECT SPARSE SOLVER RUNNING ON
 	1 HOST:        1 MPI RANK  x 4 THREADS
 	NUMBER OF EQUATIONS:     11904
 	NUMBER OF RHS:           1
 	NUMBER OF FLOPS:         2.090e+08

     CHECK POINT  START OF SOLVER     

     CHECK POINT  END OF SOLVER       

       ELAPSED USER TIME (SEC)      =  0.10000    
       ELAPSED SYSTEM TIME (SEC)    =   0.0000    
       ELAPSED TOTAL CPU TIME (SEC) =  0.10000    
       ELAPSED WALLCLOCK TIME (SEC) =            0
 

 ***WARNING: THE SYSTEM MATRIX HAS 1 NEGATIVE EIGENVALUES.
             EXPLANATIONS ARE SUGGESTED AFTER THE FIRST OCCURRENCE OF THIS MESSAGE.

               CONVERGENCE CHECKS FOR EQUILIBRIUM ITERATION     1


 AVERAGE FORCE                      0.298       TIME AVG. FORCE       0.182    
 LARGEST RESIDUAL FORCE            -2.326E-03   AT NODE       2241   DOF  2
   INSTANCE: COMPOSITE-1                                                                     
 LARGEST INCREMENT OF DISP.         1.011E-03   AT NODE       1967   DOF  2
   INSTANCE: COMPOSITE-1                                                                     
 LARGEST CORRECTION TO DISP.        2.332E-04   AT NODE       1451   DOF  2
   INSTANCE: COMPOSITE-1                                                                     
          FORCE     EQUILIBRIUM NOT ACHIEVED WITHIN TOLERANCE.
 
	SYMMETRIC DIRECT SPARSE SOLVER RUNNING ON
 	1 HOST:        1 MPI RANK  x 4 THREADS
 	NUMBER OF EQUATIONS:     11904
 	NUMBER OF RHS:           1
 	NUMBER OF FLOPS:         2.090e+08

     CHECK POINT  START OF SOLVER     

     CHECK POINT  END OF SOLVER       

       ELAPSED USER TIME (SEC)      =  0.20000    
       ELAPSED SYSTEM TIME (SEC)    =   0.0000    
       ELAPSED TOTAL CPU TIME (SEC) =  0.20000    
       ELAPSED WALLCLOCK TIME (SEC) =            0
 

 ***WARNING: THE SYSTEM MATRIX HAS 1 NEGATIVE EIGENVALUES.
             EXPLANATIONS ARE SUGGESTED AFTER THE FIRST OCCURRENCE OF THIS MESSAGE.

               CONVERGENCE CHECKS FOR EQUILIBRIUM ITERATION     2


 AVERAGE FORCE                      0.298       TIME AVG. FORCE       0.182    
 LARGEST RESIDUAL FORCE             3.369E-06   AT NODE       3250   DOF  2
   INSTANCE: COMPOSITE-1                                                                     
 LARGEST INCREMENT OF DISP.         9.927E-04   AT NODE       1967   DOF  2
   INSTANCE: COMPOSITE-1                                                                     
 LARGEST CORRECTION TO DISP.       -1.860E-05   AT NODE       2498   DOF  2
   INSTANCE: COMPOSITE-1                                                                     
 ESTIMATE OF DISP.    CORRECTION    2.694E-08
 FORCE     EQUILIB. ACCEPTED BASED ON SMALL RESIDUAL AND ESTIMATED CORRECTION
          TIME INCREMENT MAY NOW INCREASE TO    1.125E-02

 ITERATION SUMMARY FOR THE INCREMENT:   2 TOTAL ITERATIONS, OF WHICH
   0 ARE SEVERE DISCONTINUITY ITERATIONS AND  2 ARE EQUILIBRIUM ITERATIONS.

 TIME INCREMENT COMPLETED  7.501E-03,  FRACTION OF STEP COMPLETED  0.165    
 STEP TIME COMPLETED       0.165    ,  TOTAL TIME COMPLETED        0.165    


  INCREMENT    15 STARTS. ATTEMPT NUMBER  1, TIME INCREMENT  1.125E-02

 ***NOTE: THE FRACTURE CRITERION f=1.1672 AT ELEMENT 1332, THE DAMAGE 
          INITIATION TOLERANCE HAS BEEN EXCEEDED AND CUTBACK IS REQUIRED.
 
	SYMMETRIC DIRECT SPARSE SOLVER RUNNING ON
 	1 HOST:        1 MPI RANK  x 4 THREADS
 	NUMBER OF EQUATIONS:     11904
 	NUMBER OF RHS:           1
 	NUMBER OF FLOPS:         2.090e+08

     CHECK POINT  START OF SOLVER     

     CHECK POINT  END OF SOLVER       

       ELAPSED USER TIME (SEC)      =  0.10000    
       ELAPSED SYSTEM TIME (SEC)    =   0.0000    
       ELAPSED TOTAL CPU TIME (SEC) =  0.10000    
       ELAPSED WALLCLOCK TIME (SEC) =            0
 

 ***WARNING: THE SYSTEM MATRIX HAS 1 NEGATIVE EIGENVALUES.
             EXPLANATIONS ARE SUGGESTED AFTER THE FIRST OCCURRENCE OF THIS MESSAGE.

 ***NOTE: THE FRACTURE CRITERION f=1.1773 AT ELEMENT 1332, THE DAMAGE 
          INITIATION TOLERANCE HAS BEEN EXCEEDED AND CUTBACK IS REQUIRED.


  INCREMENT    15 STARTS. ATTEMPT NUMBER  2, TIME INCREMENT  9.557E-03

 ***NOTE: THE FRACTURE CRITERION f=1.1412 AT ELEMENT 1332, THE DAMAGE 
          INITIATION TOLERANCE HAS BEEN EXCEEDED AND CUTBACK IS REQUIRED.
 
	SYMMETRIC DIRECT SPARSE SOLVER RUNNING ON
 	1 HOST:        1 MPI RANK  x 4 THREADS
 	NUMBER OF EQUATIONS:     11904
 	NUMBER OF RHS:           1
 	NUMBER OF FLOPS:         2.090e+08

     CHECK POINT  START OF SOLVER     

     CHECK POINT  END OF SOLVER       

       ELAPSED USER TIME (SEC)      =  0.10000    
       ELAPSED SYSTEM TIME (SEC)    =   0.0000    
       ELAPSED TOTAL CPU TIME (SEC) =  0.10000    
       ELAPSED WALLCLOCK TIME (SEC) =            1
 

 ***WARNING: THE SYSTEM MATRIX HAS 1 NEGATIVE EIGENVALUES.
             EXPLANATIONS ARE SUGGESTED AFTER THE FIRST OCCURRENCE OF THIS MESSAGE.

 ***NOTE: THE FRACTURE CRITERION f=1.1498 AT ELEMENT 1332, THE DAMAGE 
          INITIATION TOLERANCE HAS BEEN EXCEEDED AND CUTBACK IS REQUIRED.


  INCREMENT    15 STARTS. ATTEMPT NUMBER  3, TIME INCREMENT  4.156E-03

 ***NOTE: THE FRACTURE CRITERION f=1.0586 AT ELEMENT 1332, THE DAMAGE 
          INITIATION TOLERANCE HAS BEEN EXCEEDED AND CUTBACK IS REQUIRED.
 
	SYMMETRIC DIRECT SPARSE SOLVER RUNNING ON
 	1 HOST:        1 MPI RANK  x 4 THREADS
 	NUMBER OF EQUATIONS:     11904
 	NUMBER OF RHS:           1
 	NUMBER OF FLOPS:         2.090e+08

     CHECK POINT  START OF SOLVER     

     CHECK POINT  END OF SOLVER       

       ELAPSED USER TIME (SEC)      =  0.10000    
       ELAPSED SYSTEM TIME (SEC)    =   0.0000    
       ELAPSED TOTAL CPU TIME (SEC) =  0.10000    
       ELAPSED WALLCLOCK TIME (SEC) =            0
 

 ***WARNING: THE SYSTEM MATRIX HAS 1 NEGATIVE EIGENVALUES.
             EXPLANATIONS ARE SUGGESTED AFTER THE FIRST OCCURRENCE OF THIS MESSAGE.

 ***NOTE: THE FRACTURE CRITERION f=1.0623 AT ELEMENT 1332, THE DAMAGE 
          INITIATION TOLERANCE HAS BEEN EXCEEDED AND CUTBACK IS REQUIRED.


  INCREMENT    15 STARTS. ATTEMPT NUMBER  4, TIME INCREMENT  1.304E-03
 
	SYMMETRIC DIRECT SPARSE SOLVER RUNNING ON
 	1 HOST:        1 MPI RANK  x 4 THREADS
 	NUMBER OF EQUATIONS:     11904
 	NUMBER OF RHS:           1
 	NUMBER OF FLOPS:         2.090e+08

     CHECK POINT  START OF SOLVER     

     CHECK POINT  END OF SOLVER       

       ELAPSED USER TIME (SEC)      =  0.10000    
       ELAPSED SYSTEM TIME (SEC)    =   0.0000    
       ELAPSED TOTAL CPU TIME (SEC) =  0.10000    
       ELAPSED WALLCLOCK TIME (SEC) =            0
 

 ***WARNING: THE SYSTEM MATRIX HAS 1 NEGATIVE EIGENVALUES.
             EXPLANATIONS ARE SUGGESTED AFTER THE FIRST OCCURRENCE OF THIS MESSAGE.

               CONVERGENCE CHECKS FOR EQUILIBRIUM ITERATION     1


 AVERAGE FORCE                      0.300       TIME AVG. FORCE       0.190    
 LARGEST RESIDUAL FORCE            -3.938E-03   AT NODE        976   DOF  2
   INSTANCE: COMPOSITE-1                                                                     
 LARGEST INCREMENT OF DISP.         1.770E-04   AT NODE          5   DOF  2
   INSTANCE: COMPOSITE-1                                                                     
 LARGEST CORRECTION TO DISP.        7.141E-06   AT NODE       1451   DOF  2
   INSTANCE: COMPOSITE-1                                                                     
          FORCE     EQUILIBRIUM NOT ACHIEVED WITHIN TOLERANCE.
 
	SYMMETRIC DIRECT SPARSE SOLVER RUNNING ON
 	1 HOST:        1 MPI RANK  x 4 THREADS
 	NUMBER OF EQUATIONS:     11904
 	NUMBER OF RHS:           1
 	NUMBER OF FLOPS:         2.090e+08

     CHECK POINT  START OF SOLVER     

     CHECK POINT  END OF SOLVER       

       ELAPSED USER TIME (SEC)      =  0.10000    
       ELAPSED SYSTEM TIME (SEC)    =   0.0000    
       ELAPSED TOTAL CPU TIME (SEC) =  0.10000    
       ELAPSED WALLCLOCK TIME (SEC) =            0
 

 ***WARNING: THE SYSTEM MATRIX HAS 1 NEGATIVE EIGENVALUES.
             EXPLANATIONS ARE SUGGESTED AFTER THE FIRST OCCURRENCE OF THIS MESSAGE.

               CONVERGENCE CHECKS FOR EQUILIBRIUM ITERATION     2


 AVERAGE FORCE                      0.300       TIME AVG. FORCE       0.190    
 LARGEST RESIDUAL FORCE            -3.000E-04   AT NODE       1329   DOF  2
   INSTANCE: COMPOSITE-1                                                                     
 LARGEST INCREMENT OF DISP.         1.292E-04   AT NODE       1967   DOF  2
   INSTANCE: COMPOSITE-1                                                                     
 LARGEST CORRECTION TO DISP.       -5.266E-05   AT NODE       3250   DOF  2
   INSTANCE: COMPOSITE-1                                                                     
          DISP.    CORRECTION TOO LARGE COMPARED TO DISP.    INCREMENT
 
	SYMMETRIC DIRECT SPARSE SOLVER RUNNING ON
 	1 HOST:        1 MPI RANK  x 4 THREADS
 	NUMBER OF EQUATIONS:     11904
 	NUMBER OF RHS:           1
 	NUMBER OF FLOPS:         2.090e+08

     CHECK POINT  START OF SOLVER     

     CHECK POINT  END OF SOLVER       

       ELAPSED USER TIME (SEC)      =  0.10000    
       ELAPSED SYSTEM TIME (SEC)    =   0.0000    
       ELAPSED TOTAL CPU TIME (SEC) =  0.10000    
       ELAPSED WALLCLOCK TIME (SEC) =            0
 

 ***WARNING: THE SYSTEM MATRIX HAS 1 NEGATIVE EIGENVALUES.
             EXPLANATIONS ARE SUGGESTED AFTER THE FIRST OCCURRENCE OF THIS MESSAGE.

               CONVERGENCE CHECKS FOR EQUILIBRIUM ITERATION     3


 AVERAGE FORCE                      0.300       TIME AVG. FORCE       0.190    
 LARGEST RESIDUAL FORCE             4.060E-05   AT NODE        976   DOF  2
   INSTANCE: COMPOSITE-1                                                                     
 LARGEST INCREMENT OF DISP.         1.276E-04   AT NODE       1967   DOF  2
   INSTANCE: COMPOSITE-1                                                                     
 LARGEST CORRECTION TO DISP.       -1.711E-06   AT NODE       3387   DOF  2
   INSTANCE: COMPOSITE-1                                                                     
 ESTIMATE OF DISP.    CORRECTION    2.316E-07
 FORCE     EQUILIB. ACCEPTED BASED ON SMALL RESIDUAL AND ESTIMATED CORRECTION
          TIME INCREMENT MAY NOW INCREASE TO    1.956E-03

 ITERATION SUMMARY FOR THE INCREMENT:   3 TOTAL ITERATIONS, OF WHICH
   0 ARE SEVERE DISCONTINUITY ITERATIONS AND  3 ARE EQUILIBRIUM ITERATIONS.

 TIME INCREMENT COMPLETED  1.304E-03,  FRACTION OF STEP COMPLETED  0.166    
 STEP TIME COMPLETED       0.166    ,  TOTAL TIME COMPLETED        0.166    


  INCREMENT    16 STARTS. ATTEMPT NUMBER  1, TIME INCREMENT  1.956E-03
 
	SYMMETRIC DIRECT SPARSE SOLVER RUNNING ON
 	1 HOST:        1 MPI RANK  x 4 THREADS
 	NUMBER OF EQUATIONS:     11916
 	NUMBER OF RHS:           1
 	NUMBER OF FLOPS:         2.117e+08

     CHECK POINT  START OF SOLVER     

     CHECK POINT  END OF SOLVER       

       ELAPSED USER TIME (SEC)      =  0.10000    
       ELAPSED SYSTEM TIME (SEC)    =   0.0000    
       ELAPSED TOTAL CPU TIME (SEC) =  0.10000    
       ELAPSED WALLCLOCK TIME (SEC) =            0
 

 ***WARNING: THE SYSTEM MATRIX HAS 1 NEGATIVE EIGENVALUES.
             EXPLANATIONS ARE SUGGESTED AFTER THE FIRST OCCURRENCE OF THIS MESSAGE.

 ***NOTE: THE FRACTURE CRITERION f=1.6376 AT ELEMENT 1388, THE DAMAGE 
          INITIATION TOLERANCE HAS BEEN EXCEEDED AND CUTBACK IS REQUIRED.


  INCREMENT    16 STARTS. ATTEMPT NUMBER  2, TIME INCREMENT  1.194E-03
 
	SYMMETRIC DIRECT SPARSE SOLVER RUNNING ON
 	1 HOST:        1 MPI RANK  x 4 THREADS
 	NUMBER OF EQUATIONS:     11916
 	NUMBER OF RHS:           1
 	NUMBER OF FLOPS:         2.117e+08

     CHECK POINT  START OF SOLVER     

     CHECK POINT  END OF SOLVER       

       ELAPSED USER TIME (SEC)      =   0.0000    
       ELAPSED SYSTEM TIME (SEC)    =   0.0000    
       ELAPSED TOTAL CPU TIME (SEC) =   0.0000    
       ELAPSED WALLCLOCK TIME (SEC) =            0
 

 ***WARNING: THE SYSTEM MATRIX HAS 1 NEGATIVE EIGENVALUES.
             EXPLANATIONS ARE SUGGESTED AFTER THE FIRST OCCURRENCE OF THIS MESSAGE.

 ***NOTE: THE FRACTURE CRITERION f=1.5958 AT ELEMENT 1388, THE DAMAGE 
          INITIATION TOLERANCE HAS BEEN EXCEEDED AND CUTBACK IS REQUIRED.


  INCREMENT    16 STARTS. ATTEMPT NUMBER  3, TIME INCREMENT  3.743E-04
 
	SYMMETRIC DIRECT SPARSE SOLVER RUNNING ON
 	1 HOST:        1 MPI RANK  x 4 THREADS
 	NUMBER OF EQUATIONS:     11916
 	NUMBER OF RHS:           1
 	NUMBER OF FLOPS:         2.117e+08

     CHECK POINT  START OF SOLVER     

     CHECK POINT  END OF SOLVER       

       ELAPSED USER TIME (SEC)      =  0.10000    
       ELAPSED SYSTEM TIME (SEC)    =   0.0000    
       ELAPSED TOTAL CPU TIME (SEC) =  0.10000    
       ELAPSED WALLCLOCK TIME (SEC) =            0
 

 ***WARNING: THE SYSTEM MATRIX HAS 1 NEGATIVE EIGENVALUES.
             EXPLANATIONS ARE SUGGESTED AFTER THE FIRST OCCURRENCE OF THIS MESSAGE.

 ***NOTE: THE FRACTURE CRITERION f=1.5158 AT ELEMENT 1388, THE DAMAGE 
          INITIATION TOLERANCE HAS BEEN EXCEEDED AND CUTBACK IS REQUIRED.


  INCREMENT    16 STARTS. ATTEMPT NUMBER  4, TIME INCREMENT  8.230E-05
 
	SYMMETRIC DIRECT SPARSE SOLVER RUNNING ON
 	1 HOST:        1 MPI RANK  x 4 THREADS
 	NUMBER OF EQUATIONS:     11916
 	NUMBER OF RHS:           1
 	NUMBER OF FLOPS:         2.117e+08

     CHECK POINT  START OF SOLVER     

     CHECK POINT  END OF SOLVER       

       ELAPSED USER TIME (SEC)      =  0.10000    
       ELAPSED SYSTEM TIME (SEC)    =   0.0000    
       ELAPSED TOTAL CPU TIME (SEC) =  0.10000    
       ELAPSED WALLCLOCK TIME (SEC) =            0

 ***NOTE: THE FRACTURE CRITERION f=1.4404 AT ELEMENT 1388, THE DAMAGE 
          INITIATION TOLERANCE HAS BEEN EXCEEDED AND CUTBACK IS REQUIRED.


  INCREMENT    16 STARTS. ATTEMPT NUMBER  5, TIME INCREMENT  1.428E-05
 
	SYMMETRIC DIRECT SPARSE SOLVER RUNNING ON
 	1 HOST:        1 MPI RANK  x 4 THREADS
 	NUMBER OF EQUATIONS:     11916
 	NUMBER OF RHS:           1
 	NUMBER OF FLOPS:         2.117e+08

     CHECK POINT  START OF SOLVER     

     CHECK POINT  END OF SOLVER       

       ELAPSED USER TIME (SEC)      =  0.10000    
       ELAPSED SYSTEM TIME (SEC)    =   0.0000    
       ELAPSED TOTAL CPU TIME (SEC) =  0.10000    
       ELAPSED WALLCLOCK TIME (SEC) =            0

 ***NOTE: THE FRACTURE CRITERION f=1.3396 AT ELEMENT 1388, THE DAMAGE 
          INITIATION TOLERANCE HAS BEEN EXCEEDED AND CUTBACK IS REQUIRED.
 

 ***ERROR: TOO MANY ATTEMPTS MADE FOR THIS INCREMENT

 ***ERROR: THE ANALYSIS HAS BEEN TERMINATED DUE TO PREVIOUS ERRORS. ALL OUTPUT 
           REQUESTS HAVE BEEN WRITTEN FOR THE LAST CONVERGED INCREMENT.



     ANALYSIS SUMMARY:
     TOTAL OF         16  INCREMENTS
                      17  CUTBACKS IN AUTOMATIC INCREMENTATION
                      39  ITERATIONS INCLUDING CONTACT ITERATIONS IF PRESENT
                      39  PASSES THROUGH THE EQUATION SOLVER OF WHICH 
                      35  INVOLVE MATRIX DECOMPOSITION, INCLUDING
                       0  DECOMPOSITION(S) OF THE MASS MATRIX
                       1  REORDERING OF EQUATIONS TO MINIMIZE WAVEFRONT
                       0  ADDITIONAL RESIDUAL EVALUATIONS FOR LINE SEARCHES
                       0  ADDITIONAL OPERATOR EVALUATIONS FOR LINE SEARCHES
                       2  WARNING MESSAGES DURING USER INPUT PROCESSING
                      16  WARNING MESSAGES DURING ANALYSIS
                       0  ANALYSIS WARNINGS ARE NUMERICAL PROBLEM MESSAGES
                      16  ANALYSIS WARNINGS ARE NEGATIVE EIGENVALUE MESSAGES
                       2  ERROR MESSAGES



     JOB TIME SUMMARY
       USER TIME (SEC)      =      16.    
       SYSTEM TIME (SEC)    =      3.1    
       TOTAL CPU TIME (SEC) =      19.    
       WALLCLOCK TIME (SEC) =           11
       MEMORY PEAK (GB)     =            0
