1

   Abaqus 2022.HF2                                  Date 30-Sep-2022   Time 14:06:11
   For use by VIRGINIA POLYTECHNIC INSTITUTE _ STATE UNIVERSITY under license from Dassault Systemes or its subsidiary.

 Crack initiation and propagation in a plate with a hole (XFEM)                  
                                                                                 
 STEP    1     INCREMENT     1     STEP TIME    0.00    


                        S T E P       1     S T A T I C   A N A L Y S I S


                                                                                          

     AUTOMATIC TIME CONTROL WITH -
          A SUGGESTED INITIAL TIME INCREMENT OF                1.000E-02
          AND A TOTAL TIME PERIOD OF                            1.00    
          THE MINIMUM TIME INCREMENT ALLOWED IS                1.000E-09
          THE MAXIMUM TIME INCREMENT ALLOWED IS                1.000E-02

     LINEAR EQUATION SOLVER TYPE         DIRECT SPARSE

 CONVERGENCE TOLERANCE PARAMETERS FOR FORCE    
     CRITERION FOR RESIDUAL FORCE     FOR A NONLINEAR PROBLEM          5.000E-03
     CRITERION FOR DISP.    CORRECTION IN A NONLINEAR PROBLEM          1.000E-02
     INITIAL VALUE OF TIME AVERAGE FORCE                               1.000E-02
     AVERAGE FORCE     IS TIME AVERAGE FORCE    
     ALTERNATE CRIT. FOR RESIDUAL FORCE     FOR A NONLINEAR PROBLEM    2.000E-02
     CRITERION FOR ZERO FORCE     RELATIVE TO TIME AVRG. FORCE         1.000E-05
     CRITERION FOR RESIDUAL FORCE     WHEN THERE IS ZERO FLUX          1.000E-05
     CRITERION FOR DISP.    CORRECTION WHEN THERE IS ZERO FLUX         1.000E-03
     CRITERION FOR RESIDUAL FORCE     FOR A LINEAR INCREMENT           1.000E-08
     FIELD CONVERSION RATIO                                             1.00    
     CRITERION FOR ZERO FORCE     REL. TO TIME AVRG. MAX. FORCE        1.000E-05
     CRITERION FOR ZERO DISP.    RELATIVE TO CHARACTERISTIC LENGTH     1.000E-08

     VOLUMETRIC STRAIN COMPATIBILITY TOLERANCE FOR HYBRID SOLIDS       1.000E-05
     AXIAL STRAIN COMPATIBILITY TOLERANCE FOR HYBRID BEAMS             1.000E-05
     TRANS. SHEAR STRAIN COMPATIBILITY TOLERANCE FOR HYBRID BEAMS      1.000E-05
     SOFT CONTACT CONSTRAINT COMPATIBILITY TOLERANCE FOR P>P0          5.000E-03
     SOFT CONTACT CONSTRAINT COMPATIBILITY TOLERANCE FOR P=0.0         0.100    
     CONTACT FORCE ERROR TOLERANCE FOR CONVERT SDI=YES                 1.00    
     DISPLACEMENT COMPATIBILITY TOLERANCE FOR DCOUP ELEMENTS           1.000E-05
     ROTATION COMPATIBILITY TOLERANCE FOR DCOUP ELEMENTS               1.000E-05

 EQUILIBRIUM WILL BE CHECKED FOR SEVERE DISCONTINUITY ITERATIONS

 TIME INCREMENTATION CONTROL PARAMETERS:
     FIRST EQUILIBRIUM ITERATION FOR CONSECUTIVE DIVERGENCE CHECK              4
     EQUILIBRIUM ITERATION AT WHICH LOG. CONVERGENCE RATE CHECK BEGINS         8
     EQUILIBRIUM ITERATION AFTER WHICH ALTERNATE RESIDUAL IS USED              9
     MAXIMUM EQUILIBRIUM ITERATIONS ALLOWED                                   16
     EQUILIBRIUM ITERATION COUNT FOR CUT-BACK IN NEXT INCREMENT               10
     MAXIMUM EQUILIB. ITERS IN TWO INCREMENTS FOR TIME INCREMENT INCREASE      4
     MAXIMUM ITERATIONS FOR SEVERE DISCONTINUITIES                            50
 *** MAXIMUM ATTEMPTS ALLOWED IN AN INCREMENT                                 20
     MAXIMUM DISCON. ITERS IN TWO INCREMENTS FOR TIME INCREMENT INCREASE      50
     MAXIMUM CONTACT AUGMENTATIONS FOR *SURFACE BEHAVIOR,AUGMENTED LAGRANGE   50
     CUT-BACK FACTOR AFTER DIVERGENCE                                 0.2500    
     CUT-BACK FACTOR FOR TOO SLOW CONVERGENCE                         0.5000    
     CUT-BACK FACTOR AFTER TOO MANY EQUILIBRIUM ITERATIONS            0.7500    
     CUT-BACK FACTOR AFTER TOO MANY SEVERE DISCONTINUITY ITERATIONS   0.2500    
     CUT-BACK FACTOR AFTER PROBLEMS IN ELEMENT ASSEMBLY               0.2500    
     INCREASE FACTOR AFTER TWO INCREMENTS THAT CONVERGE QUICKLY        1.500    
     MAX. TIME INCREMENT INCREASE FACTOR ALLOWED                       1.500    
     MAX. TIME INCREMENT INCREASE FACTOR ALLOWED (DYNAMICS)            1.250    
     MAX. TIME INCREMENT INCREASE FACTOR ALLOWED (DIFFUSION)           2.000    
     MINIMUM TIME INCREMENT RATIO FOR EXTRAPOLATION TO OCCUR          0.1000    
     MAX. RATIO OF TIME INCREMENT TO STABILITY LIMIT                   1.000    
     FRACTION OF STABILITY LIMIT FOR NEW TIME INCREMENT               0.9500    
     TIME INCREMENT INCREASE FACTOR BEFORE A TIME POINT                1.000    

 *** INDICATES USE OF NON-DEFAULT TIME INCREMENTATION CONTROL PARAMETER
     SELECTED WITH *CONTROLS
     GLOBAL STABILIZATION CONTROL IS NOT USED

          PRINT OF INCREMENT NUMBER, TIME, ETC., EVERY    1  INCREMENTS

     THE MAXIMUM NUMBER OF INCREMENTS IN THIS STEP IS                  100000

          LARGE DISPLACEMENT THEORY WILL BE USED

     LINEAR EXTRAPOLATION WILL BE USED

     CHARACTERISTIC ELEMENT LENGTH     4.187E-03

     DETAILS REGARDING ACTUAL SOLUTION WAVEFRONT REQUESTED

     DETAILED OUTPUT OF DIAGNOSTICS TO DATABASE REQUESTED

     PRINT OF INCREMENT NUMBER, TIME, ETC., TO THE MESSAGE FILE EVERY     1  INCREMENTS

     ELEMENT OPERATIONS WILL BE CARRIED OUT IN PARALLEL USING   7 THREADS ON 1 DOMAIN

     PARALLEL CONTACT TRACKING ENABLED


     COLLECTING MODEL CONSTRAINT INFORMATION FOR OVERCONSTRAINT CHECKS

     COLLECTING STEP CONSTRAINT INFORMATION FOR OVERCONSTRAINT CHECKS
 
     GPU SOLVER ACCELERATION ENABLED



  INCREMENT     1 STARTS. ATTEMPT NUMBER  1, TIME INCREMENT  1.000E-02
 
     INITIAL ELEMENT LOAD BALANCE
            DOMAIN    1     THREAD    NUMBER OF ELEMENTS
                              1            288
                              2            324
                              3            296
                              4            328
                              5            248
                              6            248
                              7            328
 
	SYMMETRIC DIRECT SPARSE SOLVER RUNNING ON
 	1 HOST:        1 MPI RANK  x 7 THREADS, 1 GPU PER RANK
 	NUMBER OF EQUATIONS:     4328
 	NUMBER OF RHS:           1
 	NUMBER OF FLOPS:         1.080e+07

     CHECK POINT  START OF SOLVER     

     CHECK POINT  END OF SOLVER       

       ELAPSED USER TIME (SEC)      =  0.10000    
       ELAPSED SYSTEM TIME (SEC)    =  0.10000    
       ELAPSED TOTAL CPU TIME (SEC) =  0.20000    
       ELAPSED WALLCLOCK TIME (SEC) =            0

               CONVERGENCE CHECKS FOR EQUILIBRIUM ITERATION     1


 AVERAGE FORCE                       2.20       TIME AVG. FORCE        2.20    
 LARGEST RESIDUAL FORCE             1.677E-02   AT NODE          2   DOF  2
   INSTANCE:                                                                                 
 LARGEST INCREMENT OF DISP.         1.697E-05   AT NODE          2   DOF  2
   INSTANCE: {assembly node}                                                                 
 LARGEST CORRECTION TO DISP.        1.697E-05   AT NODE          2   DOF  2
   INSTANCE: {assembly node}                                                                 
          FORCE     EQUILIBRIUM NOT ACHIEVED WITHIN TOLERANCE.
 
	SYMMETRIC DIRECT SPARSE SOLVER RUNNING ON
 	1 HOST:        1 MPI RANK  x 7 THREADS, 1 GPU PER RANK
 	NUMBER OF EQUATIONS:     4328
 	NUMBER OF RHS:           1
 	NUMBER OF FLOPS:         1.080e+07

     CHECK POINT  START OF SOLVER     

     CHECK POINT  END OF SOLVER       

       ELAPSED USER TIME (SEC)      =  0.10000    
       ELAPSED SYSTEM TIME (SEC)    =   0.0000    
       ELAPSED TOTAL CPU TIME (SEC) =  0.10000    
       ELAPSED WALLCLOCK TIME (SEC) =            0

               CONVERGENCE CHECKS FOR EQUILIBRIUM ITERATION     2


 AVERAGE FORCE                       2.20       TIME AVG. FORCE        2.20    
 LARGEST RESIDUAL FORCE            -5.777E-07   AT NODE          2   DOF  2
   INSTANCE:                                                                                 
 LARGEST INCREMENT OF DISP.         1.697E-05   AT NODE          2   DOF  2
   INSTANCE: {assembly node}                                                                 
 LARGEST CORRECTION TO DISP.        7.376E-10   AT NODE         13   DOF  2
   INSTANCE: PLATE_1                                                                         
          THE FORCE     EQUILIBRIUM EQUATIONS HAVE CONVERGED

 ITERATION SUMMARY FOR THE INCREMENT:   2 TOTAL ITERATIONS, OF WHICH
   0 ARE SEVERE DISCONTINUITY ITERATIONS AND  2 ARE EQUILIBRIUM ITERATIONS.

 TIME INCREMENT COMPLETED  1.000E-02,  FRACTION OF STEP COMPLETED  1.000E-02
 STEP TIME COMPLETED       1.000E-02,  TOTAL TIME COMPLETED        1.000E-02


  INCREMENT     2 STARTS. ATTEMPT NUMBER  1, TIME INCREMENT  1.000E-02
 
	SYMMETRIC DIRECT SPARSE SOLVER RUNNING ON
 	1 HOST:        1 MPI RANK  x 7 THREADS, 1 GPU PER RANK
 	NUMBER OF EQUATIONS:     4328
 	NUMBER OF RHS:           1
 	NUMBER OF FLOPS:         1.080e+07

     CHECK POINT  START OF SOLVER     

     CHECK POINT  END OF SOLVER       

       ELAPSED USER TIME (SEC)      =  0.20000    
       ELAPSED SYSTEM TIME (SEC)    =   0.0000    
       ELAPSED TOTAL CPU TIME (SEC) =  0.20000    
       ELAPSED WALLCLOCK TIME (SEC) =            0

               CONVERGENCE CHECKS FOR EQUILIBRIUM ITERATION     1


 AVERAGE FORCE                       8.83       TIME AVG. FORCE        5.51    
 LARGEST RESIDUAL FORCE            -9.068E-07   AT NODE          2   DOF  2
   INSTANCE:                                                                                 
 LARGEST INCREMENT OF DISP.         1.697E-05   AT NODE          2   DOF  2
   INSTANCE: {assembly node}                                                                 
 LARGEST CORRECTION TO DISP.        1.475E-09   AT NODE         13   DOF  2
   INSTANCE: PLATE_1                                                                         
          THE FORCE     EQUILIBRIUM EQUATIONS HAVE CONVERGED

 ITERATION SUMMARY FOR THE INCREMENT:   1 TOTAL ITERATIONS, OF WHICH
   0 ARE SEVERE DISCONTINUITY ITERATIONS AND  1 ARE EQUILIBRIUM ITERATIONS.

 TIME INCREMENT COMPLETED  1.000E-02,  FRACTION OF STEP COMPLETED  2.000E-02
 STEP TIME COMPLETED       2.000E-02,  TOTAL TIME COMPLETED        2.000E-02


  INCREMENT     3 STARTS. ATTEMPT NUMBER  1, TIME INCREMENT  1.000E-02
 
	SYMMETRIC DIRECT SPARSE SOLVER RUNNING ON
 	1 HOST:        1 MPI RANK  x 7 THREADS, 1 GPU PER RANK
 	NUMBER OF EQUATIONS:     4328
 	NUMBER OF RHS:           1
 	NUMBER OF FLOPS:         1.080e+07

     CHECK POINT  START OF SOLVER     

     CHECK POINT  END OF SOLVER       

       ELAPSED USER TIME (SEC)      =  0.10000    
       ELAPSED SYSTEM TIME (SEC)    =   0.0000    
       ELAPSED TOTAL CPU TIME (SEC) =  0.10000    
       ELAPSED WALLCLOCK TIME (SEC) =            0

               CONVERGENCE CHECKS FOR EQUILIBRIUM ITERATION     1


 AVERAGE FORCE                       13.2       TIME AVG. FORCE        8.09    
 LARGEST RESIDUAL FORCE            -2.058E-06   AT NODE          2   DOF  2
   INSTANCE:                                                                                 
 LARGEST INCREMENT OF DISP.         1.697E-05   AT NODE          2   DOF  2
   INSTANCE: {assembly node}                                                                 
 LARGEST CORRECTION TO DISP.        1.475E-09   AT NODE         13   DOF  2
   INSTANCE: PLATE_1                                                                         
          THE FORCE     EQUILIBRIUM EQUATIONS HAVE CONVERGED

 ITERATION SUMMARY FOR THE INCREMENT:   1 TOTAL ITERATIONS, OF WHICH
   0 ARE SEVERE DISCONTINUITY ITERATIONS AND  1 ARE EQUILIBRIUM ITERATIONS.

 TIME INCREMENT COMPLETED  1.000E-02,  FRACTION OF STEP COMPLETED  3.000E-02
 STEP TIME COMPLETED       3.000E-02,  TOTAL TIME COMPLETED        3.000E-02


  INCREMENT     4 STARTS. ATTEMPT NUMBER  1, TIME INCREMENT  1.000E-02
 
	SYMMETRIC DIRECT SPARSE SOLVER RUNNING ON
 	1 HOST:        1 MPI RANK  x 7 THREADS, 1 GPU PER RANK
 	NUMBER OF EQUATIONS:     4328
 	NUMBER OF RHS:           1
 	NUMBER OF FLOPS:         1.080e+07

     CHECK POINT  START OF SOLVER     

     CHECK POINT  END OF SOLVER       

       ELAPSED USER TIME (SEC)      =  0.20000    
       ELAPSED SYSTEM TIME (SEC)    =   0.0000    
       ELAPSED TOTAL CPU TIME (SEC) =  0.20000    
       ELAPSED WALLCLOCK TIME (SEC) =            0

               CONVERGENCE CHECKS FOR EQUILIBRIUM ITERATION     1


 AVERAGE FORCE                       17.7       TIME AVG. FORCE        10.5    
 LARGEST RESIDUAL FORCE            -3.210E-06   AT NODE          2   DOF  2
   INSTANCE:                                                                                 
 LARGEST INCREMENT OF DISP.         1.697E-05   AT NODE          2   DOF  2
   INSTANCE: {assembly node}                                                                 
 LARGEST CORRECTION TO DISP.        1.476E-09   AT NODE         13   DOF  2
   INSTANCE: PLATE_1                                                                         
          THE FORCE     EQUILIBRIUM EQUATIONS HAVE CONVERGED

 ITERATION SUMMARY FOR THE INCREMENT:   1 TOTAL ITERATIONS, OF WHICH
   0 ARE SEVERE DISCONTINUITY ITERATIONS AND  1 ARE EQUILIBRIUM ITERATIONS.

 TIME INCREMENT COMPLETED  1.000E-02,  FRACTION OF STEP COMPLETED  4.000E-02
 STEP TIME COMPLETED       4.000E-02,  TOTAL TIME COMPLETED        4.000E-02


  INCREMENT     5 STARTS. ATTEMPT NUMBER  1, TIME INCREMENT  1.000E-02
 
	SYMMETRIC DIRECT SPARSE SOLVER RUNNING ON
 	1 HOST:        1 MPI RANK  x 7 THREADS, 1 GPU PER RANK
 	NUMBER OF EQUATIONS:     4328
 	NUMBER OF RHS:           1
 	NUMBER OF FLOPS:         1.080e+07

     CHECK POINT  START OF SOLVER     

     CHECK POINT  END OF SOLVER       

       ELAPSED USER TIME (SEC)      =  0.20000    
       ELAPSED SYSTEM TIME (SEC)    =   0.0000    
       ELAPSED TOTAL CPU TIME (SEC) =  0.20000    
       ELAPSED WALLCLOCK TIME (SEC) =            0

               CONVERGENCE CHECKS FOR EQUILIBRIUM ITERATION     1


 AVERAGE FORCE                       22.1       TIME AVG. FORCE        12.8    
 LARGEST RESIDUAL FORCE            -4.362E-06   AT NODE          2   DOF  2
   INSTANCE:                                                                                 
 LARGEST INCREMENT OF DISP.         1.697E-05   AT NODE          2   DOF  2
   INSTANCE: {assembly node}                                                                 
 LARGEST CORRECTION TO DISP.        1.476E-09   AT NODE          2   DOF  2
   INSTANCE: {assembly node}                                                                 
          THE FORCE     EQUILIBRIUM EQUATIONS HAVE CONVERGED

 ITERATION SUMMARY FOR THE INCREMENT:   1 TOTAL ITERATIONS, OF WHICH
   0 ARE SEVERE DISCONTINUITY ITERATIONS AND  1 ARE EQUILIBRIUM ITERATIONS.

 TIME INCREMENT COMPLETED  1.000E-02,  FRACTION OF STEP COMPLETED  5.000E-02
 STEP TIME COMPLETED       5.000E-02,  TOTAL TIME COMPLETED        5.000E-02


  INCREMENT     6 STARTS. ATTEMPT NUMBER  1, TIME INCREMENT  1.000E-02
 
	SYMMETRIC DIRECT SPARSE SOLVER RUNNING ON
 	1 HOST:        1 MPI RANK  x 7 THREADS, 1 GPU PER RANK
 	NUMBER OF EQUATIONS:     4328
 	NUMBER OF RHS:           1
 	NUMBER OF FLOPS:         1.080e+07

     CHECK POINT  START OF SOLVER     

     CHECK POINT  END OF SOLVER       

       ELAPSED USER TIME (SEC)      =  0.10000    
       ELAPSED SYSTEM TIME (SEC)    =   0.0000    
       ELAPSED TOTAL CPU TIME (SEC) =  0.10000    
       ELAPSED WALLCLOCK TIME (SEC) =            0

               CONVERGENCE CHECKS FOR EQUILIBRIUM ITERATION     1


 AVERAGE FORCE                       26.5       TIME AVG. FORCE        15.1    
 LARGEST RESIDUAL FORCE            -5.515E-06   AT NODE          2   DOF  2
   INSTANCE:                                                                                 
 LARGEST INCREMENT OF DISP.         1.697E-05   AT NODE          2   DOF  2
   INSTANCE: {assembly node}                                                                 
 LARGEST CORRECTION TO DISP.        1.476E-09   AT NODE          2   DOF  2
   INSTANCE: {assembly node}                                                                 
          THE FORCE     EQUILIBRIUM EQUATIONS HAVE CONVERGED

 ITERATION SUMMARY FOR THE INCREMENT:   1 TOTAL ITERATIONS, OF WHICH
   0 ARE SEVERE DISCONTINUITY ITERATIONS AND  1 ARE EQUILIBRIUM ITERATIONS.

 TIME INCREMENT COMPLETED  1.000E-02,  FRACTION OF STEP COMPLETED  6.000E-02
 STEP TIME COMPLETED       6.000E-02,  TOTAL TIME COMPLETED        6.000E-02


  INCREMENT     7 STARTS. ATTEMPT NUMBER  1, TIME INCREMENT  1.000E-02
 
	SYMMETRIC DIRECT SPARSE SOLVER RUNNING ON
 	1 HOST:        1 MPI RANK  x 7 THREADS, 1 GPU PER RANK
 	NUMBER OF EQUATIONS:     4328
 	NUMBER OF RHS:           1
 	NUMBER OF FLOPS:         1.080e+07

     CHECK POINT  START OF SOLVER     

     CHECK POINT  END OF SOLVER       

       ELAPSED USER TIME (SEC)      =  0.10000    
       ELAPSED SYSTEM TIME (SEC)    =   0.0000    
       ELAPSED TOTAL CPU TIME (SEC) =  0.10000    
       ELAPSED WALLCLOCK TIME (SEC) =            0

               CONVERGENCE CHECKS FOR EQUILIBRIUM ITERATION     1


 AVERAGE FORCE                       30.9       TIME AVG. FORCE        17.3    
 LARGEST RESIDUAL FORCE            -6.667E-06   AT NODE          2   DOF  2
   INSTANCE:                                                                                 
 LARGEST INCREMENT OF DISP.         1.698E-05   AT NODE          2   DOF  2
   INSTANCE: {assembly node}                                                                 
 LARGEST CORRECTION TO DISP.        1.476E-09   AT NODE         13   DOF  2
   INSTANCE: PLATE_1                                                                         
          THE FORCE     EQUILIBRIUM EQUATIONS HAVE CONVERGED

 ITERATION SUMMARY FOR THE INCREMENT:   1 TOTAL ITERATIONS, OF WHICH
   0 ARE SEVERE DISCONTINUITY ITERATIONS AND  1 ARE EQUILIBRIUM ITERATIONS.

 TIME INCREMENT COMPLETED  1.000E-02,  FRACTION OF STEP COMPLETED  7.000E-02
 STEP TIME COMPLETED       7.000E-02,  TOTAL TIME COMPLETED        7.000E-02


  INCREMENT     8 STARTS. ATTEMPT NUMBER  1, TIME INCREMENT  1.000E-02
 
	SYMMETRIC DIRECT SPARSE SOLVER RUNNING ON
 	1 HOST:        1 MPI RANK  x 7 THREADS, 1 GPU PER RANK
 	NUMBER OF EQUATIONS:     4328
 	NUMBER OF RHS:           1
 	NUMBER OF FLOPS:         1.080e+07

     CHECK POINT  START OF SOLVER     

     CHECK POINT  END OF SOLVER       

       ELAPSED USER TIME (SEC)      =  0.10000    
       ELAPSED SYSTEM TIME (SEC)    =   0.0000    
       ELAPSED TOTAL CPU TIME (SEC) =  0.10000    
       ELAPSED WALLCLOCK TIME (SEC) =            0

               CONVERGENCE CHECKS FOR EQUILIBRIUM ITERATION     1


 AVERAGE FORCE                       35.3       TIME AVG. FORCE        19.6    
 LARGEST RESIDUAL FORCE            -7.820E-06   AT NODE          2   DOF  2
   INSTANCE:                                                                                 
 LARGEST INCREMENT OF DISP.         1.698E-05   AT NODE          2   DOF  2
   INSTANCE: {assembly node}                                                                 
 LARGEST CORRECTION TO DISP.        1.477E-09   AT NODE          2   DOF  2
   INSTANCE: {assembly node}                                                                 
          THE FORCE     EQUILIBRIUM EQUATIONS HAVE CONVERGED

 ITERATION SUMMARY FOR THE INCREMENT:   1 TOTAL ITERATIONS, OF WHICH
   0 ARE SEVERE DISCONTINUITY ITERATIONS AND  1 ARE EQUILIBRIUM ITERATIONS.

 TIME INCREMENT COMPLETED  1.000E-02,  FRACTION OF STEP COMPLETED  8.000E-02
 STEP TIME COMPLETED       8.000E-02,  TOTAL TIME COMPLETED        8.000E-02


  INCREMENT     9 STARTS. ATTEMPT NUMBER  1, TIME INCREMENT  1.000E-02
 
	SYMMETRIC DIRECT SPARSE SOLVER RUNNING ON
 	1 HOST:        1 MPI RANK  x 7 THREADS, 1 GPU PER RANK
 	NUMBER OF EQUATIONS:     4328
 	NUMBER OF RHS:           1
 	NUMBER OF FLOPS:         1.080e+07

     CHECK POINT  START OF SOLVER     

     CHECK POINT  END OF SOLVER       

       ELAPSED USER TIME (SEC)      =  0.10000    
       ELAPSED SYSTEM TIME (SEC)    =   0.0000    
       ELAPSED TOTAL CPU TIME (SEC) =  0.10000    
       ELAPSED WALLCLOCK TIME (SEC) =            0

               CONVERGENCE CHECKS FOR EQUILIBRIUM ITERATION     1


 AVERAGE FORCE                       39.7       TIME AVG. FORCE        21.8    
 LARGEST RESIDUAL FORCE            -8.973E-06   AT NODE          2   DOF  2
   INSTANCE:                                                                                 
 LARGEST INCREMENT OF DISP.         1.698E-05   AT NODE          2   DOF  2
   INSTANCE: {assembly node}                                                                 
 LARGEST CORRECTION TO DISP.        1.477E-09   AT NODE         13   DOF  2
   INSTANCE: PLATE_1                                                                         
          THE FORCE     EQUILIBRIUM EQUATIONS HAVE CONVERGED

 ITERATION SUMMARY FOR THE INCREMENT:   1 TOTAL ITERATIONS, OF WHICH
   0 ARE SEVERE DISCONTINUITY ITERATIONS AND  1 ARE EQUILIBRIUM ITERATIONS.

 TIME INCREMENT COMPLETED  1.000E-02,  FRACTION OF STEP COMPLETED  9.000E-02
 STEP TIME COMPLETED       9.000E-02,  TOTAL TIME COMPLETED        9.000E-02


  INCREMENT    10 STARTS. ATTEMPT NUMBER  1, TIME INCREMENT  1.000E-02
 
	SYMMETRIC DIRECT SPARSE SOLVER RUNNING ON
 	1 HOST:        1 MPI RANK  x 7 THREADS, 1 GPU PER RANK
 	NUMBER OF EQUATIONS:     4328
 	NUMBER OF RHS:           1
 	NUMBER OF FLOPS:         1.080e+07

     CHECK POINT  START OF SOLVER     

     CHECK POINT  END OF SOLVER       

       ELAPSED USER TIME (SEC)      =  0.20000    
       ELAPSED SYSTEM TIME (SEC)    =   0.0000    
       ELAPSED TOTAL CPU TIME (SEC) =  0.20000    
       ELAPSED WALLCLOCK TIME (SEC) =            0

               CONVERGENCE CHECKS FOR EQUILIBRIUM ITERATION     1


 AVERAGE FORCE                       44.1       TIME AVG. FORCE        24.1    
 LARGEST RESIDUAL FORCE            -1.013E-05   AT NODE          2   DOF  2
   INSTANCE:                                                                                 
 LARGEST INCREMENT OF DISP.         1.698E-05   AT NODE          2   DOF  2
   INSTANCE: {assembly node}                                                                 
 LARGEST CORRECTION TO DISP.        1.477E-09   AT NODE          2   DOF  2
   INSTANCE: {assembly node}                                                                 
          THE FORCE     EQUILIBRIUM EQUATIONS HAVE CONVERGED

 ITERATION SUMMARY FOR THE INCREMENT:   1 TOTAL ITERATIONS, OF WHICH
   0 ARE SEVERE DISCONTINUITY ITERATIONS AND  1 ARE EQUILIBRIUM ITERATIONS.

 TIME INCREMENT COMPLETED  1.000E-02,  FRACTION OF STEP COMPLETED  0.100    
 STEP TIME COMPLETED       0.100    ,  TOTAL TIME COMPLETED        0.100    


  INCREMENT    11 STARTS. ATTEMPT NUMBER  1, TIME INCREMENT  1.000E-02
 
	SYMMETRIC DIRECT SPARSE SOLVER RUNNING ON
 	1 HOST:        1 MPI RANK  x 7 THREADS, 1 GPU PER RANK
 	NUMBER OF EQUATIONS:     4328
 	NUMBER OF RHS:           1
 	NUMBER OF FLOPS:         1.080e+07

     CHECK POINT  START OF SOLVER     

     CHECK POINT  END OF SOLVER       

       ELAPSED USER TIME (SEC)      =  0.10000    
       ELAPSED SYSTEM TIME (SEC)    =   0.0000    
       ELAPSED TOTAL CPU TIME (SEC) =  0.10000    
       ELAPSED WALLCLOCK TIME (SEC) =            0

               CONVERGENCE CHECKS FOR EQUILIBRIUM ITERATION     1


 AVERAGE FORCE                       48.5       TIME AVG. FORCE        26.3    
 LARGEST RESIDUAL FORCE            -1.128E-05   AT NODE          2   DOF  2
   INSTANCE:                                                                                 
 LARGEST INCREMENT OF DISP.         1.698E-05   AT NODE          2   DOF  2
   INSTANCE: {assembly node}                                                                 
 LARGEST CORRECTION TO DISP.        1.477E-09   AT NODE         13   DOF  2
   INSTANCE: PLATE_1                                                                         
          THE FORCE     EQUILIBRIUM EQUATIONS HAVE CONVERGED

 ITERATION SUMMARY FOR THE INCREMENT:   1 TOTAL ITERATIONS, OF WHICH
   0 ARE SEVERE DISCONTINUITY ITERATIONS AND  1 ARE EQUILIBRIUM ITERATIONS.

 TIME INCREMENT COMPLETED  1.000E-02,  FRACTION OF STEP COMPLETED  0.110    
 STEP TIME COMPLETED       0.110    ,  TOTAL TIME COMPLETED        0.110    


  INCREMENT    12 STARTS. ATTEMPT NUMBER  1, TIME INCREMENT  1.000E-02
 
	SYMMETRIC DIRECT SPARSE SOLVER RUNNING ON
 	1 HOST:        1 MPI RANK  x 7 THREADS, 1 GPU PER RANK
 	NUMBER OF EQUATIONS:     4328
 	NUMBER OF RHS:           1
 	NUMBER OF FLOPS:         1.080e+07

     CHECK POINT  START OF SOLVER     

     CHECK POINT  END OF SOLVER       

       ELAPSED USER TIME (SEC)      =  0.20000    
       ELAPSED SYSTEM TIME (SEC)    =   0.0000    
       ELAPSED TOTAL CPU TIME (SEC) =  0.20000    
       ELAPSED WALLCLOCK TIME (SEC) =            0

               CONVERGENCE CHECKS FOR EQUILIBRIUM ITERATION     1


 AVERAGE FORCE                       53.0       TIME AVG. FORCE        28.5    
 LARGEST RESIDUAL FORCE            -1.243E-05   AT NODE          2   DOF  2
   INSTANCE:                                                                                 
 LARGEST INCREMENT OF DISP.         1.698E-05   AT NODE          2   DOF  2
   INSTANCE: {assembly node}                                                                 
 LARGEST CORRECTION TO DISP.        1.478E-09   AT NODE         13   DOF  2
   INSTANCE: PLATE_1                                                                         
          THE FORCE     EQUILIBRIUM EQUATIONS HAVE CONVERGED

 ITERATION SUMMARY FOR THE INCREMENT:   1 TOTAL ITERATIONS, OF WHICH
   0 ARE SEVERE DISCONTINUITY ITERATIONS AND  1 ARE EQUILIBRIUM ITERATIONS.

 TIME INCREMENT COMPLETED  1.000E-02,  FRACTION OF STEP COMPLETED  0.120    
 STEP TIME COMPLETED       0.120    ,  TOTAL TIME COMPLETED        0.120    


  INCREMENT    13 STARTS. ATTEMPT NUMBER  1, TIME INCREMENT  1.000E-02
 
	SYMMETRIC DIRECT SPARSE SOLVER RUNNING ON
 	1 HOST:        1 MPI RANK  x 7 THREADS, 1 GPU PER RANK
 	NUMBER OF EQUATIONS:     4328
 	NUMBER OF RHS:           1
 	NUMBER OF FLOPS:         1.080e+07

     CHECK POINT  START OF SOLVER     

     CHECK POINT  END OF SOLVER       

       ELAPSED USER TIME (SEC)      =  0.10000    
       ELAPSED SYSTEM TIME (SEC)    =   0.0000    
       ELAPSED TOTAL CPU TIME (SEC) =  0.10000    
       ELAPSED WALLCLOCK TIME (SEC) =            0

               CONVERGENCE CHECKS FOR EQUILIBRIUM ITERATION     1


 AVERAGE FORCE                       57.4       TIME AVG. FORCE        30.7    
 LARGEST RESIDUAL FORCE            -1.359E-05   AT NODE          2   DOF  2
   INSTANCE:                                                                                 
 LARGEST INCREMENT OF DISP.         1.698E-05   AT NODE          2   DOF  2
   INSTANCE: {assembly node}                                                                 
 LARGEST CORRECTION TO DISP.        1.478E-09   AT NODE          2   DOF  2
   INSTANCE: {assembly node}                                                                 
          THE FORCE     EQUILIBRIUM EQUATIONS HAVE CONVERGED

 ITERATION SUMMARY FOR THE INCREMENT:   1 TOTAL ITERATIONS, OF WHICH
   0 ARE SEVERE DISCONTINUITY ITERATIONS AND  1 ARE EQUILIBRIUM ITERATIONS.

 TIME INCREMENT COMPLETED  1.000E-02,  FRACTION OF STEP COMPLETED  0.130    
 STEP TIME COMPLETED       0.130    ,  TOTAL TIME COMPLETED        0.130    


  INCREMENT    14 STARTS. ATTEMPT NUMBER  1, TIME INCREMENT  1.000E-02
 
	SYMMETRIC DIRECT SPARSE SOLVER RUNNING ON
 	1 HOST:        1 MPI RANK  x 7 THREADS, 1 GPU PER RANK
 	NUMBER OF EQUATIONS:     4328
 	NUMBER OF RHS:           1
 	NUMBER OF FLOPS:         1.080e+07

     CHECK POINT  START OF SOLVER     

     CHECK POINT  END OF SOLVER       

       ELAPSED USER TIME (SEC)      =  0.20000    
       ELAPSED SYSTEM TIME (SEC)    =   0.0000    
       ELAPSED TOTAL CPU TIME (SEC) =  0.20000    
       ELAPSED WALLCLOCK TIME (SEC) =            1

               CONVERGENCE CHECKS FOR EQUILIBRIUM ITERATION     1


 AVERAGE FORCE                       61.8       TIME AVG. FORCE        32.9    
 LARGEST RESIDUAL FORCE            -1.474E-05   AT NODE          2   DOF  2
   INSTANCE:                                                                                 
 LARGEST INCREMENT OF DISP.         1.699E-05   AT NODE          2   DOF  2
   INSTANCE: {assembly node}                                                                 
 LARGEST CORRECTION TO DISP.        1.478E-09   AT NODE          2   DOF  2
   INSTANCE: {assembly node}                                                                 
          THE FORCE     EQUILIBRIUM EQUATIONS HAVE CONVERGED

 ITERATION SUMMARY FOR THE INCREMENT:   1 TOTAL ITERATIONS, OF WHICH
   0 ARE SEVERE DISCONTINUITY ITERATIONS AND  1 ARE EQUILIBRIUM ITERATIONS.

 TIME INCREMENT COMPLETED  1.000E-02,  FRACTION OF STEP COMPLETED  0.140    
 STEP TIME COMPLETED       0.140    ,  TOTAL TIME COMPLETED        0.140    


  INCREMENT    15 STARTS. ATTEMPT NUMBER  1, TIME INCREMENT  1.000E-02
 
	SYMMETRIC DIRECT SPARSE SOLVER RUNNING ON
 	1 HOST:        1 MPI RANK  x 7 THREADS, 1 GPU PER RANK
 	NUMBER OF EQUATIONS:     4328
 	NUMBER OF RHS:           1
 	NUMBER OF FLOPS:         1.080e+07

     CHECK POINT  START OF SOLVER     

     CHECK POINT  END OF SOLVER       

       ELAPSED USER TIME (SEC)      =  0.10000    
       ELAPSED SYSTEM TIME (SEC)    =   0.0000    
       ELAPSED TOTAL CPU TIME (SEC) =  0.10000    
       ELAPSED WALLCLOCK TIME (SEC) =            0

               CONVERGENCE CHECKS FOR EQUILIBRIUM ITERATION     1


 AVERAGE FORCE                       66.2       TIME AVG. FORCE        35.2    
 LARGEST RESIDUAL FORCE            -1.590E-05   AT NODE          2   DOF  2
   INSTANCE:                                                                                 
 LARGEST INCREMENT OF DISP.         1.699E-05   AT NODE          2   DOF  2
   INSTANCE: {assembly node}                                                                 
 LARGEST CORRECTION TO DISP.        1.478E-09   AT NODE         13   DOF  2
   INSTANCE: PLATE_1                                                                         
          THE FORCE     EQUILIBRIUM EQUATIONS HAVE CONVERGED

 ITERATION SUMMARY FOR THE INCREMENT:   1 TOTAL ITERATIONS, OF WHICH
   0 ARE SEVERE DISCONTINUITY ITERATIONS AND  1 ARE EQUILIBRIUM ITERATIONS.

 TIME INCREMENT COMPLETED  1.000E-02,  FRACTION OF STEP COMPLETED  0.150    
 STEP TIME COMPLETED       0.150    ,  TOTAL TIME COMPLETED        0.150    


  INCREMENT    16 STARTS. ATTEMPT NUMBER  1, TIME INCREMENT  1.000E-02
 
	SYMMETRIC DIRECT SPARSE SOLVER RUNNING ON
 	1 HOST:        1 MPI RANK  x 7 THREADS, 1 GPU PER RANK
 	NUMBER OF EQUATIONS:     4328
 	NUMBER OF RHS:           1
 	NUMBER OF FLOPS:         1.080e+07

     CHECK POINT  START OF SOLVER     

     CHECK POINT  END OF SOLVER       

       ELAPSED USER TIME (SEC)      =  0.10000    
       ELAPSED SYSTEM TIME (SEC)    =   0.0000    
       ELAPSED TOTAL CPU TIME (SEC) =  0.10000    
       ELAPSED WALLCLOCK TIME (SEC) =            0

               CONVERGENCE CHECKS FOR EQUILIBRIUM ITERATION     1


 AVERAGE FORCE                       70.6       TIME AVG. FORCE        37.4    
 LARGEST RESIDUAL FORCE            -1.705E-05   AT NODE          2   DOF  2
   INSTANCE:                                                                                 
 LARGEST INCREMENT OF DISP.         1.699E-05   AT NODE          2   DOF  2
   INSTANCE: {assembly node}                                                                 
 LARGEST CORRECTION TO DISP.        1.478E-09   AT NODE         13   DOF  2
   INSTANCE: PLATE_1                                                                         
          THE FORCE     EQUILIBRIUM EQUATIONS HAVE CONVERGED

 ITERATION SUMMARY FOR THE INCREMENT:   1 TOTAL ITERATIONS, OF WHICH
   0 ARE SEVERE DISCONTINUITY ITERATIONS AND  1 ARE EQUILIBRIUM ITERATIONS.

 TIME INCREMENT COMPLETED  1.000E-02,  FRACTION OF STEP COMPLETED  0.160    
 STEP TIME COMPLETED       0.160    ,  TOTAL TIME COMPLETED        0.160    


  INCREMENT    17 STARTS. ATTEMPT NUMBER  1, TIME INCREMENT  1.000E-02
 
	SYMMETRIC DIRECT SPARSE SOLVER RUNNING ON
 	1 HOST:        1 MPI RANK  x 7 THREADS, 1 GPU PER RANK
 	NUMBER OF EQUATIONS:     4328
 	NUMBER OF RHS:           1
 	NUMBER OF FLOPS:         1.080e+07

     CHECK POINT  START OF SOLVER     

     CHECK POINT  END OF SOLVER       

       ELAPSED USER TIME (SEC)      =  0.10000    
       ELAPSED SYSTEM TIME (SEC)    =  0.10000    
       ELAPSED TOTAL CPU TIME (SEC) =  0.20000    
       ELAPSED WALLCLOCK TIME (SEC) =            0

               CONVERGENCE CHECKS FOR EQUILIBRIUM ITERATION     1


 AVERAGE FORCE                       75.1       TIME AVG. FORCE        39.6    
 LARGEST RESIDUAL FORCE            -1.821E-05   AT NODE          2   DOF  2
   INSTANCE:                                                                                 
 LARGEST INCREMENT OF DISP.         1.699E-05   AT NODE          2   DOF  2
   INSTANCE: {assembly node}                                                                 
 LARGEST CORRECTION TO DISP.        1.479E-09   AT NODE          2   DOF  2
   INSTANCE: {assembly node}                                                                 
          THE FORCE     EQUILIBRIUM EQUATIONS HAVE CONVERGED

 ITERATION SUMMARY FOR THE INCREMENT:   1 TOTAL ITERATIONS, OF WHICH
   0 ARE SEVERE DISCONTINUITY ITERATIONS AND  1 ARE EQUILIBRIUM ITERATIONS.

 TIME INCREMENT COMPLETED  1.000E-02,  FRACTION OF STEP COMPLETED  0.170    
 STEP TIME COMPLETED       0.170    ,  TOTAL TIME COMPLETED        0.170    


  INCREMENT    18 STARTS. ATTEMPT NUMBER  1, TIME INCREMENT  1.000E-02
 
	SYMMETRIC DIRECT SPARSE SOLVER RUNNING ON
 	1 HOST:        1 MPI RANK  x 7 THREADS, 1 GPU PER RANK
 	NUMBER OF EQUATIONS:     4328
 	NUMBER OF RHS:           1
 	NUMBER OF FLOPS:         1.080e+07

     CHECK POINT  START OF SOLVER     

     CHECK POINT  END OF SOLVER       

       ELAPSED USER TIME (SEC)      =  0.20000    
       ELAPSED SYSTEM TIME (SEC)    =   0.0000    
       ELAPSED TOTAL CPU TIME (SEC) =  0.20000    
       ELAPSED WALLCLOCK TIME (SEC) =            0

               CONVERGENCE CHECKS FOR EQUILIBRIUM ITERATION     1


 AVERAGE FORCE                       79.5       TIME AVG. FORCE        41.8    
 LARGEST RESIDUAL FORCE            -1.936E-05   AT NODE          2   DOF  2
   INSTANCE:                                                                                 
 LARGEST INCREMENT OF DISP.         1.699E-05   AT NODE          2   DOF  2
   INSTANCE: {assembly node}                                                                 
 LARGEST CORRECTION TO DISP.        1.479E-09   AT NODE          2   DOF  2
   INSTANCE: {assembly node}                                                                 
          THE FORCE     EQUILIBRIUM EQUATIONS HAVE CONVERGED

 ITERATION SUMMARY FOR THE INCREMENT:   1 TOTAL ITERATIONS, OF WHICH
   0 ARE SEVERE DISCONTINUITY ITERATIONS AND  1 ARE EQUILIBRIUM ITERATIONS.

 TIME INCREMENT COMPLETED  1.000E-02,  FRACTION OF STEP COMPLETED  0.180    
 STEP TIME COMPLETED       0.180    ,  TOTAL TIME COMPLETED        0.180    


  INCREMENT    19 STARTS. ATTEMPT NUMBER  1, TIME INCREMENT  1.000E-02
 
	SYMMETRIC DIRECT SPARSE SOLVER RUNNING ON
 	1 HOST:        1 MPI RANK  x 7 THREADS, 1 GPU PER RANK
 	NUMBER OF EQUATIONS:     4328
 	NUMBER OF RHS:           1
 	NUMBER OF FLOPS:         1.080e+07

     CHECK POINT  START OF SOLVER     

     CHECK POINT  END OF SOLVER       

       ELAPSED USER TIME (SEC)      =   0.0000    
       ELAPSED SYSTEM TIME (SEC)    =   0.0000    
       ELAPSED TOTAL CPU TIME (SEC) =   0.0000    
       ELAPSED WALLCLOCK TIME (SEC) =            0

               CONVERGENCE CHECKS FOR EQUILIBRIUM ITERATION     1


 AVERAGE FORCE                       83.9       TIME AVG. FORCE        44.0    
 LARGEST RESIDUAL FORCE            -2.052E-05   AT NODE          2   DOF  2
   INSTANCE:                                                                                 
 LARGEST INCREMENT OF DISP.         1.699E-05   AT NODE          2   DOF  2
   INSTANCE: {assembly node}                                                                 
 LARGEST CORRECTION TO DISP.        1.479E-09   AT NODE         13   DOF  2
   INSTANCE: PLATE_1                                                                         
          THE FORCE     EQUILIBRIUM EQUATIONS HAVE CONVERGED

 ITERATION SUMMARY FOR THE INCREMENT:   1 TOTAL ITERATIONS, OF WHICH
   0 ARE SEVERE DISCONTINUITY ITERATIONS AND  1 ARE EQUILIBRIUM ITERATIONS.

 TIME INCREMENT COMPLETED  1.000E-02,  FRACTION OF STEP COMPLETED  0.190    
 STEP TIME COMPLETED       0.190    ,  TOTAL TIME COMPLETED        0.190    


  INCREMENT    20 STARTS. ATTEMPT NUMBER  1, TIME INCREMENT  1.000E-02
 
	SYMMETRIC DIRECT SPARSE SOLVER RUNNING ON
 	1 HOST:        1 MPI RANK  x 7 THREADS, 1 GPU PER RANK
 	NUMBER OF EQUATIONS:     4328
 	NUMBER OF RHS:           1
 	NUMBER OF FLOPS:         1.080e+07

     CHECK POINT  START OF SOLVER     

     CHECK POINT  END OF SOLVER       

       ELAPSED USER TIME (SEC)      =  0.10000    
       ELAPSED SYSTEM TIME (SEC)    =  0.10000    
       ELAPSED TOTAL CPU TIME (SEC) =  0.20000    
       ELAPSED WALLCLOCK TIME (SEC) =            0

               CONVERGENCE CHECKS FOR EQUILIBRIUM ITERATION     1


 AVERAGE FORCE                       88.3       TIME AVG. FORCE        46.2    
 LARGEST RESIDUAL FORCE            -2.168E-05   AT NODE          2   DOF  2
   INSTANCE:                                                                                 
 LARGEST INCREMENT OF DISP.         1.699E-05   AT NODE          2   DOF  2
   INSTANCE: {assembly node}                                                                 
 LARGEST CORRECTION TO DISP.        1.479E-09   AT NODE          2   DOF  2
   INSTANCE: {assembly node}                                                                 
          THE FORCE     EQUILIBRIUM EQUATIONS HAVE CONVERGED

 ITERATION SUMMARY FOR THE INCREMENT:   1 TOTAL ITERATIONS, OF WHICH
   0 ARE SEVERE DISCONTINUITY ITERATIONS AND  1 ARE EQUILIBRIUM ITERATIONS.

 TIME INCREMENT COMPLETED  1.000E-02,  FRACTION OF STEP COMPLETED  0.200    
 STEP TIME COMPLETED       0.200    ,  TOTAL TIME COMPLETED        0.200    


  INCREMENT    21 STARTS. ATTEMPT NUMBER  1, TIME INCREMENT  1.000E-02
 
	SYMMETRIC DIRECT SPARSE SOLVER RUNNING ON
 	1 HOST:        1 MPI RANK  x 7 THREADS, 1 GPU PER RANK
 	NUMBER OF EQUATIONS:     4328
 	NUMBER OF RHS:           1
 	NUMBER OF FLOPS:         1.080e+07

     CHECK POINT  START OF SOLVER     

     CHECK POINT  END OF SOLVER       

       ELAPSED USER TIME (SEC)      =  0.10000    
       ELAPSED SYSTEM TIME (SEC)    =   0.0000    
       ELAPSED TOTAL CPU TIME (SEC) =  0.10000    
       ELAPSED WALLCLOCK TIME (SEC) =            0

               CONVERGENCE CHECKS FOR EQUILIBRIUM ITERATION     1


 AVERAGE FORCE                       92.7       TIME AVG. FORCE        48.4    
 LARGEST RESIDUAL FORCE            -2.283E-05   AT NODE          2   DOF  2
   INSTANCE:                                                                                 
 LARGEST INCREMENT OF DISP.         1.700E-05   AT NODE          2   DOF  2
   INSTANCE: {assembly node}                                                                 
 LARGEST CORRECTION TO DISP.        1.480E-09   AT NODE         13   DOF  2
   INSTANCE: PLATE_1                                                                         
          THE FORCE     EQUILIBRIUM EQUATIONS HAVE CONVERGED

 ITERATION SUMMARY FOR THE INCREMENT:   1 TOTAL ITERATIONS, OF WHICH
   0 ARE SEVERE DISCONTINUITY ITERATIONS AND  1 ARE EQUILIBRIUM ITERATIONS.

 TIME INCREMENT COMPLETED  1.000E-02,  FRACTION OF STEP COMPLETED  0.210    
 STEP TIME COMPLETED       0.210    ,  TOTAL TIME COMPLETED        0.210    


  INCREMENT    22 STARTS. ATTEMPT NUMBER  1, TIME INCREMENT  1.000E-02
 
	SYMMETRIC DIRECT SPARSE SOLVER RUNNING ON
 	1 HOST:        1 MPI RANK  x 7 THREADS, 1 GPU PER RANK
 	NUMBER OF EQUATIONS:     4328
 	NUMBER OF RHS:           1
 	NUMBER OF FLOPS:         1.080e+07

     CHECK POINT  START OF SOLVER     

     CHECK POINT  END OF SOLVER       

       ELAPSED USER TIME (SEC)      =  0.10000    
       ELAPSED SYSTEM TIME (SEC)    =   0.0000    
       ELAPSED TOTAL CPU TIME (SEC) =  0.10000    
       ELAPSED WALLCLOCK TIME (SEC) =            0

               CONVERGENCE CHECKS FOR EQUILIBRIUM ITERATION     1


 AVERAGE FORCE                       97.1       TIME AVG. FORCE        50.7    
 LARGEST RESIDUAL FORCE            -2.399E-05   AT NODE          2   DOF  2
   INSTANCE:                                                                                 
 LARGEST INCREMENT OF DISP.         1.700E-05   AT NODE          2   DOF  2
   INSTANCE: {assembly node}                                                                 
 LARGEST CORRECTION TO DISP.        1.480E-09   AT NODE          2   DOF  2
   INSTANCE: {assembly node}                                                                 
          THE FORCE     EQUILIBRIUM EQUATIONS HAVE CONVERGED

 ITERATION SUMMARY FOR THE INCREMENT:   1 TOTAL ITERATIONS, OF WHICH
   0 ARE SEVERE DISCONTINUITY ITERATIONS AND  1 ARE EQUILIBRIUM ITERATIONS.

 TIME INCREMENT COMPLETED  1.000E-02,  FRACTION OF STEP COMPLETED  0.220    
 STEP TIME COMPLETED       0.220    ,  TOTAL TIME COMPLETED        0.220    


  INCREMENT    23 STARTS. ATTEMPT NUMBER  1, TIME INCREMENT  1.000E-02
 
	SYMMETRIC DIRECT SPARSE SOLVER RUNNING ON
 	1 HOST:        1 MPI RANK  x 7 THREADS, 1 GPU PER RANK
 	NUMBER OF EQUATIONS:     4328
 	NUMBER OF RHS:           1
 	NUMBER OF FLOPS:         1.080e+07

     CHECK POINT  START OF SOLVER     

     CHECK POINT  END OF SOLVER       

       ELAPSED USER TIME (SEC)      =   0.0000    
       ELAPSED SYSTEM TIME (SEC)    =   0.0000    
       ELAPSED TOTAL CPU TIME (SEC) =   0.0000    
       ELAPSED WALLCLOCK TIME (SEC) =            0

               CONVERGENCE CHECKS FOR EQUILIBRIUM ITERATION     1


 AVERAGE FORCE                       102.       TIME AVG. FORCE        52.9    
 LARGEST RESIDUAL FORCE            -2.515E-05   AT NODE          2   DOF  2
   INSTANCE:                                                                                 
 LARGEST INCREMENT OF DISP.         1.700E-05   AT NODE          2   DOF  2
   INSTANCE: {assembly node}                                                                 
 LARGEST CORRECTION TO DISP.        1.480E-09   AT NODE          2   DOF  2
   INSTANCE: {assembly node}                                                                 
          THE FORCE     EQUILIBRIUM EQUATIONS HAVE CONVERGED

 ITERATION SUMMARY FOR THE INCREMENT:   1 TOTAL ITERATIONS, OF WHICH
   0 ARE SEVERE DISCONTINUITY ITERATIONS AND  1 ARE EQUILIBRIUM ITERATIONS.

 TIME INCREMENT COMPLETED  1.000E-02,  FRACTION OF STEP COMPLETED  0.230    
 STEP TIME COMPLETED       0.230    ,  TOTAL TIME COMPLETED        0.230    


  INCREMENT    24 STARTS. ATTEMPT NUMBER  1, TIME INCREMENT  1.000E-02
 
	SYMMETRIC DIRECT SPARSE SOLVER RUNNING ON
 	1 HOST:        1 MPI RANK  x 7 THREADS, 1 GPU PER RANK
 	NUMBER OF EQUATIONS:     4328
 	NUMBER OF RHS:           1
 	NUMBER OF FLOPS:         1.080e+07

     CHECK POINT  START OF SOLVER     

     CHECK POINT  END OF SOLVER       

       ELAPSED USER TIME (SEC)      =  0.10000    
       ELAPSED SYSTEM TIME (SEC)    =  0.10000    
       ELAPSED TOTAL CPU TIME (SEC) =  0.20000    
       ELAPSED WALLCLOCK TIME (SEC) =            0

               CONVERGENCE CHECKS FOR EQUILIBRIUM ITERATION     1


 AVERAGE FORCE                       106.       TIME AVG. FORCE        55.1    
 LARGEST RESIDUAL FORCE            -2.630E-05   AT NODE          2   DOF  2
   INSTANCE:                                                                                 
 LARGEST INCREMENT OF DISP.         1.700E-05   AT NODE          2   DOF  2
   INSTANCE: {assembly node}                                                                 
 LARGEST CORRECTION TO DISP.        1.480E-09   AT NODE         13   DOF  2
   INSTANCE: PLATE_1                                                                         
          THE FORCE     EQUILIBRIUM EQUATIONS HAVE CONVERGED

 ITERATION SUMMARY FOR THE INCREMENT:   1 TOTAL ITERATIONS, OF WHICH
   0 ARE SEVERE DISCONTINUITY ITERATIONS AND  1 ARE EQUILIBRIUM ITERATIONS.

 TIME INCREMENT COMPLETED  1.000E-02,  FRACTION OF STEP COMPLETED  0.240    
 STEP TIME COMPLETED       0.240    ,  TOTAL TIME COMPLETED        0.240    


  INCREMENT    25 STARTS. ATTEMPT NUMBER  1, TIME INCREMENT  1.000E-02
 
	SYMMETRIC DIRECT SPARSE SOLVER RUNNING ON
 	1 HOST:        1 MPI RANK  x 7 THREADS, 1 GPU PER RANK
 	NUMBER OF EQUATIONS:     4328
 	NUMBER OF RHS:           1
 	NUMBER OF FLOPS:         1.080e+07

     CHECK POINT  START OF SOLVER     

     CHECK POINT  END OF SOLVER       

       ELAPSED USER TIME (SEC)      =  0.10000    
       ELAPSED SYSTEM TIME (SEC)    =  0.10000    
       ELAPSED TOTAL CPU TIME (SEC) =  0.20000    
       ELAPSED WALLCLOCK TIME (SEC) =            0

               CONVERGENCE CHECKS FOR EQUILIBRIUM ITERATION     1


 AVERAGE FORCE                       110.       TIME AVG. FORCE        57.3    
 LARGEST RESIDUAL FORCE            -2.746E-05   AT NODE          2   DOF  2
   INSTANCE:                                                                                 
 LARGEST INCREMENT OF DISP.         1.700E-05   AT NODE          2   DOF  2
   INSTANCE: {assembly node}                                                                 
 LARGEST CORRECTION TO DISP.        1.481E-09   AT NODE          2   DOF  2
   INSTANCE: {assembly node}                                                                 
          THE FORCE     EQUILIBRIUM EQUATIONS HAVE CONVERGED

 ITERATION SUMMARY FOR THE INCREMENT:   1 TOTAL ITERATIONS, OF WHICH
   0 ARE SEVERE DISCONTINUITY ITERATIONS AND  1 ARE EQUILIBRIUM ITERATIONS.

 TIME INCREMENT COMPLETED  1.000E-02,  FRACTION OF STEP COMPLETED  0.250    
 STEP TIME COMPLETED       0.250    ,  TOTAL TIME COMPLETED        0.250    


  INCREMENT    26 STARTS. ATTEMPT NUMBER  1, TIME INCREMENT  1.000E-02
 
	SYMMETRIC DIRECT SPARSE SOLVER RUNNING ON
 	1 HOST:        1 MPI RANK  x 7 THREADS, 1 GPU PER RANK
 	NUMBER OF EQUATIONS:     4328
 	NUMBER OF RHS:           1
 	NUMBER OF FLOPS:         1.080e+07

     CHECK POINT  START OF SOLVER     

     CHECK POINT  END OF SOLVER       

       ELAPSED USER TIME (SEC)      =  0.10000    
       ELAPSED SYSTEM TIME (SEC)    =   0.0000    
       ELAPSED TOTAL CPU TIME (SEC) =  0.10000    
       ELAPSED WALLCLOCK TIME (SEC) =            0

               CONVERGENCE CHECKS FOR EQUILIBRIUM ITERATION     1


 AVERAGE FORCE                       115.       TIME AVG. FORCE        59.5    
 LARGEST RESIDUAL FORCE            -2.862E-05   AT NODE          2   DOF  2
   INSTANCE:                                                                                 
 LARGEST INCREMENT OF DISP.         1.700E-05   AT NODE          2   DOF  2
   INSTANCE: {assembly node}                                                                 
 LARGEST CORRECTION TO DISP.        1.481E-09   AT NODE          2   DOF  2
   INSTANCE: {assembly node}                                                                 
          THE FORCE     EQUILIBRIUM EQUATIONS HAVE CONVERGED

 ITERATION SUMMARY FOR THE INCREMENT:   1 TOTAL ITERATIONS, OF WHICH
   0 ARE SEVERE DISCONTINUITY ITERATIONS AND  1 ARE EQUILIBRIUM ITERATIONS.

 TIME INCREMENT COMPLETED  1.000E-02,  FRACTION OF STEP COMPLETED  0.260    
 STEP TIME COMPLETED       0.260    ,  TOTAL TIME COMPLETED        0.260    


  INCREMENT    27 STARTS. ATTEMPT NUMBER  1, TIME INCREMENT  1.000E-02
 
	SYMMETRIC DIRECT SPARSE SOLVER RUNNING ON
 	1 HOST:        1 MPI RANK  x 7 THREADS, 1 GPU PER RANK
 	NUMBER OF EQUATIONS:     4328
 	NUMBER OF RHS:           1
 	NUMBER OF FLOPS:         1.080e+07

     CHECK POINT  START OF SOLVER     

     CHECK POINT  END OF SOLVER       

       ELAPSED USER TIME (SEC)      =  0.20000    
       ELAPSED SYSTEM TIME (SEC)    =   0.0000    
       ELAPSED TOTAL CPU TIME (SEC) =  0.20000    
       ELAPSED WALLCLOCK TIME (SEC) =            0

               CONVERGENCE CHECKS FOR EQUILIBRIUM ITERATION     1


 AVERAGE FORCE                       119.       TIME AVG. FORCE        61.7    
 LARGEST RESIDUAL FORCE            -2.978E-05   AT NODE          2   DOF  2
   INSTANCE:                                                                                 
 LARGEST INCREMENT OF DISP.         1.700E-05   AT NODE          2   DOF  2
   INSTANCE: {assembly node}                                                                 
 LARGEST CORRECTION TO DISP.        1.481E-09   AT NODE          2   DOF  2
   INSTANCE: {assembly node}                                                                 
          THE FORCE     EQUILIBRIUM EQUATIONS HAVE CONVERGED

 ITERATION SUMMARY FOR THE INCREMENT:   1 TOTAL ITERATIONS, OF WHICH
   0 ARE SEVERE DISCONTINUITY ITERATIONS AND  1 ARE EQUILIBRIUM ITERATIONS.

 TIME INCREMENT COMPLETED  1.000E-02,  FRACTION OF STEP COMPLETED  0.270    
 STEP TIME COMPLETED       0.270    ,  TOTAL TIME COMPLETED        0.270    


  INCREMENT    28 STARTS. ATTEMPT NUMBER  1, TIME INCREMENT  1.000E-02
 
	SYMMETRIC DIRECT SPARSE SOLVER RUNNING ON
 	1 HOST:        1 MPI RANK  x 7 THREADS, 1 GPU PER RANK
 	NUMBER OF EQUATIONS:     4328
 	NUMBER OF RHS:           1
 	NUMBER OF FLOPS:         1.080e+07

     CHECK POINT  START OF SOLVER     

     CHECK POINT  END OF SOLVER       

       ELAPSED USER TIME (SEC)      =  0.20000    
       ELAPSED SYSTEM TIME (SEC)    =  0.10000    
       ELAPSED TOTAL CPU TIME (SEC) =  0.30000    
       ELAPSED WALLCLOCK TIME (SEC) =            0

               CONVERGENCE CHECKS FOR EQUILIBRIUM ITERATION     1


 AVERAGE FORCE                       124.       TIME AVG. FORCE        63.9    
 LARGEST RESIDUAL FORCE            -3.094E-05   AT NODE          2   DOF  2
   INSTANCE:                                                                                 
 LARGEST INCREMENT OF DISP.         1.701E-05   AT NODE          2   DOF  2
   INSTANCE: {assembly node}                                                                 
 LARGEST CORRECTION TO DISP.        1.481E-09   AT NODE          2   DOF  2
   INSTANCE: {assembly node}                                                                 
          THE FORCE     EQUILIBRIUM EQUATIONS HAVE CONVERGED

 ITERATION SUMMARY FOR THE INCREMENT:   1 TOTAL ITERATIONS, OF WHICH
   0 ARE SEVERE DISCONTINUITY ITERATIONS AND  1 ARE EQUILIBRIUM ITERATIONS.

 TIME INCREMENT COMPLETED  1.000E-02,  FRACTION OF STEP COMPLETED  0.280    
 STEP TIME COMPLETED       0.280    ,  TOTAL TIME COMPLETED        0.280    


  INCREMENT    29 STARTS. ATTEMPT NUMBER  1, TIME INCREMENT  1.000E-02
 
	SYMMETRIC DIRECT SPARSE SOLVER RUNNING ON
 	1 HOST:        1 MPI RANK  x 7 THREADS, 1 GPU PER RANK
 	NUMBER OF EQUATIONS:     4328
 	NUMBER OF RHS:           1
 	NUMBER OF FLOPS:         1.080e+07

     CHECK POINT  START OF SOLVER     

     CHECK POINT  END OF SOLVER       

       ELAPSED USER TIME (SEC)      =  0.20000    
       ELAPSED SYSTEM TIME (SEC)    =   0.0000    
       ELAPSED TOTAL CPU TIME (SEC) =  0.20000    
       ELAPSED WALLCLOCK TIME (SEC) =            0

               CONVERGENCE CHECKS FOR EQUILIBRIUM ITERATION     1


 AVERAGE FORCE                       128.       TIME AVG. FORCE        66.1    
 LARGEST RESIDUAL FORCE            -3.209E-05   AT NODE          2   DOF  2
   INSTANCE:                                                                                 
 LARGEST INCREMENT OF DISP.         1.701E-05   AT NODE          2   DOF  2
   INSTANCE: {assembly node}                                                                 
 LARGEST CORRECTION TO DISP.        1.481E-09   AT NODE         13   DOF  2
   INSTANCE: PLATE_1                                                                         
          THE FORCE     EQUILIBRIUM EQUATIONS HAVE CONVERGED

 ITERATION SUMMARY FOR THE INCREMENT:   1 TOTAL ITERATIONS, OF WHICH
   0 ARE SEVERE DISCONTINUITY ITERATIONS AND  1 ARE EQUILIBRIUM ITERATIONS.

 TIME INCREMENT COMPLETED  1.000E-02,  FRACTION OF STEP COMPLETED  0.290    
 STEP TIME COMPLETED       0.290    ,  TOTAL TIME COMPLETED        0.290    


  INCREMENT    30 STARTS. ATTEMPT NUMBER  1, TIME INCREMENT  1.000E-02
 
	SYMMETRIC DIRECT SPARSE SOLVER RUNNING ON
 	1 HOST:        1 MPI RANK  x 7 THREADS, 1 GPU PER RANK
 	NUMBER OF EQUATIONS:     4328
 	NUMBER OF RHS:           1
 	NUMBER OF FLOPS:         1.080e+07

     CHECK POINT  START OF SOLVER     

     CHECK POINT  END OF SOLVER       

       ELAPSED USER TIME (SEC)      =  0.10000    
       ELAPSED SYSTEM TIME (SEC)    =   0.0000    
       ELAPSED TOTAL CPU TIME (SEC) =  0.10000    
       ELAPSED WALLCLOCK TIME (SEC) =            0

               CONVERGENCE CHECKS FOR EQUILIBRIUM ITERATION     1


 AVERAGE FORCE                       132.       TIME AVG. FORCE        68.3    
 LARGEST RESIDUAL FORCE            -3.325E-05   AT NODE          2   DOF  2
   INSTANCE:                                                                                 
 LARGEST INCREMENT OF DISP.         1.701E-05   AT NODE          2   DOF  2
   INSTANCE: {assembly node}                                                                 
 LARGEST CORRECTION TO DISP.        1.482E-09   AT NODE          2   DOF  2
   INSTANCE: {assembly node}                                                                 
          THE FORCE     EQUILIBRIUM EQUATIONS HAVE CONVERGED

 ITERATION SUMMARY FOR THE INCREMENT:   1 TOTAL ITERATIONS, OF WHICH
   0 ARE SEVERE DISCONTINUITY ITERATIONS AND  1 ARE EQUILIBRIUM ITERATIONS.

 TIME INCREMENT COMPLETED  1.000E-02,  FRACTION OF STEP COMPLETED  0.300    
 STEP TIME COMPLETED       0.300    ,  TOTAL TIME COMPLETED        0.300    


  INCREMENT    31 STARTS. ATTEMPT NUMBER  1, TIME INCREMENT  1.000E-02
 
	SYMMETRIC DIRECT SPARSE SOLVER RUNNING ON
 	1 HOST:        1 MPI RANK  x 7 THREADS, 1 GPU PER RANK
 	NUMBER OF EQUATIONS:     4328
 	NUMBER OF RHS:           1
 	NUMBER OF FLOPS:         1.080e+07

     CHECK POINT  START OF SOLVER     

     CHECK POINT  END OF SOLVER       

       ELAPSED USER TIME (SEC)      =  0.10000    
       ELAPSED SYSTEM TIME (SEC)    =   0.0000    
       ELAPSED TOTAL CPU TIME (SEC) =  0.10000    
       ELAPSED WALLCLOCK TIME (SEC) =            0

               CONVERGENCE CHECKS FOR EQUILIBRIUM ITERATION     1


 AVERAGE FORCE                       137.       TIME AVG. FORCE        70.6    
 LARGEST RESIDUAL FORCE            -3.441E-05   AT NODE          2   DOF  2
   INSTANCE:                                                                                 
 LARGEST INCREMENT OF DISP.         1.701E-05   AT NODE          2   DOF  2
   INSTANCE: {assembly node}                                                                 
 LARGEST CORRECTION TO DISP.        1.482E-09   AT NODE         13   DOF  2
   INSTANCE: PLATE_1                                                                         
          THE FORCE     EQUILIBRIUM EQUATIONS HAVE CONVERGED

 ITERATION SUMMARY FOR THE INCREMENT:   1 TOTAL ITERATIONS, OF WHICH
   0 ARE SEVERE DISCONTINUITY ITERATIONS AND  1 ARE EQUILIBRIUM ITERATIONS.

 TIME INCREMENT COMPLETED  1.000E-02,  FRACTION OF STEP COMPLETED  0.310    
 STEP TIME COMPLETED       0.310    ,  TOTAL TIME COMPLETED        0.310    


  INCREMENT    32 STARTS. ATTEMPT NUMBER  1, TIME INCREMENT  1.000E-02
 
	SYMMETRIC DIRECT SPARSE SOLVER RUNNING ON
 	1 HOST:        1 MPI RANK  x 7 THREADS, 1 GPU PER RANK
 	NUMBER OF EQUATIONS:     4328
 	NUMBER OF RHS:           1
 	NUMBER OF FLOPS:         1.080e+07

     CHECK POINT  START OF SOLVER     

     CHECK POINT  END OF SOLVER       

       ELAPSED USER TIME (SEC)      =  0.10000    
       ELAPSED SYSTEM TIME (SEC)    =   0.0000    
       ELAPSED TOTAL CPU TIME (SEC) =  0.10000    
       ELAPSED WALLCLOCK TIME (SEC) =            0

               CONVERGENCE CHECKS FOR EQUILIBRIUM ITERATION     1


 AVERAGE FORCE                       141.       TIME AVG. FORCE        72.8    
 LARGEST RESIDUAL FORCE            -3.557E-05   AT NODE          2   DOF  2
   INSTANCE:                                                                                 
 LARGEST INCREMENT OF DISP.         1.701E-05   AT NODE          2   DOF  2
   INSTANCE: {assembly node}                                                                 
 LARGEST CORRECTION TO DISP.        1.482E-09   AT NODE          2   DOF  2
   INSTANCE: {assembly node}                                                                 
          THE FORCE     EQUILIBRIUM EQUATIONS HAVE CONVERGED

 ITERATION SUMMARY FOR THE INCREMENT:   1 TOTAL ITERATIONS, OF WHICH
   0 ARE SEVERE DISCONTINUITY ITERATIONS AND  1 ARE EQUILIBRIUM ITERATIONS.

 TIME INCREMENT COMPLETED  1.000E-02,  FRACTION OF STEP COMPLETED  0.320    
 STEP TIME COMPLETED       0.320    ,  TOTAL TIME COMPLETED        0.320    


  INCREMENT    33 STARTS. ATTEMPT NUMBER  1, TIME INCREMENT  1.000E-02
 
	SYMMETRIC DIRECT SPARSE SOLVER RUNNING ON
 	1 HOST:        1 MPI RANK  x 7 THREADS, 1 GPU PER RANK
 	NUMBER OF EQUATIONS:     4328
 	NUMBER OF RHS:           1
 	NUMBER OF FLOPS:         1.080e+07

     CHECK POINT  START OF SOLVER     

     CHECK POINT  END OF SOLVER       

       ELAPSED USER TIME (SEC)      =  0.10000    
       ELAPSED SYSTEM TIME (SEC)    =  0.10000    
       ELAPSED TOTAL CPU TIME (SEC) =  0.20000    
       ELAPSED WALLCLOCK TIME (SEC) =            0

               CONVERGENCE CHECKS FOR EQUILIBRIUM ITERATION     1


 AVERAGE FORCE                       146.       TIME AVG. FORCE        75.0    
 LARGEST RESIDUAL FORCE            -3.673E-05   AT NODE          2   DOF  2
   INSTANCE:                                                                                 
 LARGEST INCREMENT OF DISP.         1.701E-05   AT NODE          2   DOF  2
   INSTANCE: {assembly node}                                                                 
 LARGEST CORRECTION TO DISP.        1.482E-09   AT NODE         13   DOF  2
   INSTANCE: PLATE_1                                                                         
          THE FORCE     EQUILIBRIUM EQUATIONS HAVE CONVERGED

 ITERATION SUMMARY FOR THE INCREMENT:   1 TOTAL ITERATIONS, OF WHICH
   0 ARE SEVERE DISCONTINUITY ITERATIONS AND  1 ARE EQUILIBRIUM ITERATIONS.

 TIME INCREMENT COMPLETED  1.000E-02,  FRACTION OF STEP COMPLETED  0.330    
 STEP TIME COMPLETED       0.330    ,  TOTAL TIME COMPLETED        0.330    


  INCREMENT    34 STARTS. ATTEMPT NUMBER  1, TIME INCREMENT  1.000E-02
 
	SYMMETRIC DIRECT SPARSE SOLVER RUNNING ON
 	1 HOST:        1 MPI RANK  x 7 THREADS, 1 GPU PER RANK
 	NUMBER OF EQUATIONS:     4328
 	NUMBER OF RHS:           1
 	NUMBER OF FLOPS:         1.080e+07

     CHECK POINT  START OF SOLVER     

     CHECK POINT  END OF SOLVER       

       ELAPSED USER TIME (SEC)      =  0.10000    
       ELAPSED SYSTEM TIME (SEC)    =   0.0000    
       ELAPSED TOTAL CPU TIME (SEC) =  0.10000    
       ELAPSED WALLCLOCK TIME (SEC) =            0

               CONVERGENCE CHECKS FOR EQUILIBRIUM ITERATION     1


 AVERAGE FORCE                       150.       TIME AVG. FORCE        77.2    
 LARGEST RESIDUAL FORCE            -3.789E-05   AT NODE          2   DOF  2
   INSTANCE:                                                                                 
 LARGEST INCREMENT OF DISP.         1.702E-05   AT NODE          2   DOF  2
   INSTANCE: {assembly node}                                                                 
 LARGEST CORRECTION TO DISP.        1.483E-09   AT NODE          2   DOF  2
   INSTANCE: {assembly node}                                                                 
          THE FORCE     EQUILIBRIUM EQUATIONS HAVE CONVERGED

 ITERATION SUMMARY FOR THE INCREMENT:   1 TOTAL ITERATIONS, OF WHICH
   0 ARE SEVERE DISCONTINUITY ITERATIONS AND  1 ARE EQUILIBRIUM ITERATIONS.

 TIME INCREMENT COMPLETED  1.000E-02,  FRACTION OF STEP COMPLETED  0.340    
 STEP TIME COMPLETED       0.340    ,  TOTAL TIME COMPLETED        0.340    


  INCREMENT    35 STARTS. ATTEMPT NUMBER  1, TIME INCREMENT  1.000E-02
 
	SYMMETRIC DIRECT SPARSE SOLVER RUNNING ON
 	1 HOST:        1 MPI RANK  x 7 THREADS, 1 GPU PER RANK
 	NUMBER OF EQUATIONS:     4328
 	NUMBER OF RHS:           1
 	NUMBER OF FLOPS:         1.080e+07

     CHECK POINT  START OF SOLVER     

     CHECK POINT  END OF SOLVER       

       ELAPSED USER TIME (SEC)      =  0.20000    
       ELAPSED SYSTEM TIME (SEC)    =   0.0000    
       ELAPSED TOTAL CPU TIME (SEC) =  0.20000    
       ELAPSED WALLCLOCK TIME (SEC) =            1

               CONVERGENCE CHECKS FOR EQUILIBRIUM ITERATION     1


 AVERAGE FORCE                       154.       TIME AVG. FORCE        79.4    
 LARGEST RESIDUAL FORCE            -3.905E-05   AT NODE          2   DOF  2
   INSTANCE:                                                                                 
 LARGEST INCREMENT OF DISP.         1.702E-05   AT NODE          2   DOF  2
   INSTANCE: {assembly node}                                                                 
 LARGEST CORRECTION TO DISP.        1.483E-09   AT NODE          2   DOF  2
   INSTANCE: {assembly node}                                                                 
          THE FORCE     EQUILIBRIUM EQUATIONS HAVE CONVERGED

 ITERATION SUMMARY FOR THE INCREMENT:   1 TOTAL ITERATIONS, OF WHICH
   0 ARE SEVERE DISCONTINUITY ITERATIONS AND  1 ARE EQUILIBRIUM ITERATIONS.

 TIME INCREMENT COMPLETED  1.000E-02,  FRACTION OF STEP COMPLETED  0.350    
 STEP TIME COMPLETED       0.350    ,  TOTAL TIME COMPLETED        0.350    


  INCREMENT    36 STARTS. ATTEMPT NUMBER  1, TIME INCREMENT  1.000E-02
 
	SYMMETRIC DIRECT SPARSE SOLVER RUNNING ON
 	1 HOST:        1 MPI RANK  x 7 THREADS, 1 GPU PER RANK
 	NUMBER OF EQUATIONS:     4328
 	NUMBER OF RHS:           1
 	NUMBER OF FLOPS:         1.080e+07

     CHECK POINT  START OF SOLVER     

     CHECK POINT  END OF SOLVER       

       ELAPSED USER TIME (SEC)      =  0.10000    
       ELAPSED SYSTEM TIME (SEC)    =   0.0000    
       ELAPSED TOTAL CPU TIME (SEC) =  0.10000    
       ELAPSED WALLCLOCK TIME (SEC) =            0

               CONVERGENCE CHECKS FOR EQUILIBRIUM ITERATION     1


 AVERAGE FORCE                       159.       TIME AVG. FORCE        81.6    
 LARGEST RESIDUAL FORCE            -4.021E-05   AT NODE          2   DOF  2
   INSTANCE:                                                                                 
 LARGEST INCREMENT OF DISP.         1.702E-05   AT NODE          2   DOF  2
   INSTANCE: {assembly node}                                                                 
 LARGEST CORRECTION TO DISP.        1.483E-09   AT NODE          2   DOF  2
   INSTANCE: {assembly node}                                                                 
          THE FORCE     EQUILIBRIUM EQUATIONS HAVE CONVERGED

 ITERATION SUMMARY FOR THE INCREMENT:   1 TOTAL ITERATIONS, OF WHICH
   0 ARE SEVERE DISCONTINUITY ITERATIONS AND  1 ARE EQUILIBRIUM ITERATIONS.

 TIME INCREMENT COMPLETED  1.000E-02,  FRACTION OF STEP COMPLETED  0.360    
 STEP TIME COMPLETED       0.360    ,  TOTAL TIME COMPLETED        0.360    


  INCREMENT    37 STARTS. ATTEMPT NUMBER  1, TIME INCREMENT  1.000E-02
 
	SYMMETRIC DIRECT SPARSE SOLVER RUNNING ON
 	1 HOST:        1 MPI RANK  x 7 THREADS, 1 GPU PER RANK
 	NUMBER OF EQUATIONS:     4328
 	NUMBER OF RHS:           1
 	NUMBER OF FLOPS:         1.080e+07

     CHECK POINT  START OF SOLVER     

     CHECK POINT  END OF SOLVER       

       ELAPSED USER TIME (SEC)      =  0.20000    
       ELAPSED SYSTEM TIME (SEC)    =   0.0000    
       ELAPSED TOTAL CPU TIME (SEC) =  0.20000    
       ELAPSED WALLCLOCK TIME (SEC) =            0

               CONVERGENCE CHECKS FOR EQUILIBRIUM ITERATION     1


 AVERAGE FORCE                       163.       TIME AVG. FORCE        83.8    
 LARGEST RESIDUAL FORCE            -4.137E-05   AT NODE          2   DOF  2
   INSTANCE:                                                                                 
 LARGEST INCREMENT OF DISP.         1.702E-05   AT NODE          2   DOF  2
   INSTANCE: {assembly node}                                                                 
 LARGEST CORRECTION TO DISP.        1.483E-09   AT NODE         13   DOF  2
   INSTANCE: PLATE_1                                                                         
          THE FORCE     EQUILIBRIUM EQUATIONS HAVE CONVERGED

 ITERATION SUMMARY FOR THE INCREMENT:   1 TOTAL ITERATIONS, OF WHICH
   0 ARE SEVERE DISCONTINUITY ITERATIONS AND  1 ARE EQUILIBRIUM ITERATIONS.

 TIME INCREMENT COMPLETED  1.000E-02,  FRACTION OF STEP COMPLETED  0.370    
 STEP TIME COMPLETED       0.370    ,  TOTAL TIME COMPLETED        0.370    


  INCREMENT    38 STARTS. ATTEMPT NUMBER  1, TIME INCREMENT  1.000E-02
 
	SYMMETRIC DIRECT SPARSE SOLVER RUNNING ON
 	1 HOST:        1 MPI RANK  x 7 THREADS, 1 GPU PER RANK
 	NUMBER OF EQUATIONS:     4328
 	NUMBER OF RHS:           1
 	NUMBER OF FLOPS:         1.080e+07

     CHECK POINT  START OF SOLVER     

     CHECK POINT  END OF SOLVER       

       ELAPSED USER TIME (SEC)      =  0.10000    
       ELAPSED SYSTEM TIME (SEC)    =   0.0000    
       ELAPSED TOTAL CPU TIME (SEC) =  0.10000    
       ELAPSED WALLCLOCK TIME (SEC) =            0

               CONVERGENCE CHECKS FOR EQUILIBRIUM ITERATION     1


 AVERAGE FORCE                       168.       TIME AVG. FORCE        86.0    
 LARGEST RESIDUAL FORCE            -4.253E-05   AT NODE          2   DOF  2
   INSTANCE:                                                                                 
 LARGEST INCREMENT OF DISP.         1.702E-05   AT NODE          2   DOF  2
   INSTANCE: {assembly node}                                                                 
 LARGEST CORRECTION TO DISP.        1.484E-09   AT NODE          2   DOF  2
   INSTANCE: {assembly node}                                                                 
          THE FORCE     EQUILIBRIUM EQUATIONS HAVE CONVERGED

 ITERATION SUMMARY FOR THE INCREMENT:   1 TOTAL ITERATIONS, OF WHICH
   0 ARE SEVERE DISCONTINUITY ITERATIONS AND  1 ARE EQUILIBRIUM ITERATIONS.

 TIME INCREMENT COMPLETED  1.000E-02,  FRACTION OF STEP COMPLETED  0.380    
 STEP TIME COMPLETED       0.380    ,  TOTAL TIME COMPLETED        0.380    


  INCREMENT    39 STARTS. ATTEMPT NUMBER  1, TIME INCREMENT  1.000E-02
 
	SYMMETRIC DIRECT SPARSE SOLVER RUNNING ON
 	1 HOST:        1 MPI RANK  x 7 THREADS, 1 GPU PER RANK
 	NUMBER OF EQUATIONS:     4328
 	NUMBER OF RHS:           1
 	NUMBER OF FLOPS:         1.080e+07

     CHECK POINT  START OF SOLVER     

     CHECK POINT  END OF SOLVER       

       ELAPSED USER TIME (SEC)      =  0.10000    
       ELAPSED SYSTEM TIME (SEC)    =   0.0000    
       ELAPSED TOTAL CPU TIME (SEC) =  0.10000    
       ELAPSED WALLCLOCK TIME (SEC) =            0

               CONVERGENCE CHECKS FOR EQUILIBRIUM ITERATION     1


 AVERAGE FORCE                       172.       TIME AVG. FORCE        88.2    
 LARGEST RESIDUAL FORCE            -4.369E-05   AT NODE          2   DOF  2
   INSTANCE:                                                                                 
 LARGEST INCREMENT OF DISP.         1.702E-05   AT NODE          2   DOF  2
   INSTANCE: {assembly node}                                                                 
 LARGEST CORRECTION TO DISP.        1.484E-09   AT NODE          2   DOF  2
   INSTANCE: {assembly node}                                                                 
          THE FORCE     EQUILIBRIUM EQUATIONS HAVE CONVERGED

 ITERATION SUMMARY FOR THE INCREMENT:   1 TOTAL ITERATIONS, OF WHICH
   0 ARE SEVERE DISCONTINUITY ITERATIONS AND  1 ARE EQUILIBRIUM ITERATIONS.

 TIME INCREMENT COMPLETED  1.000E-02,  FRACTION OF STEP COMPLETED  0.390    
 STEP TIME COMPLETED       0.390    ,  TOTAL TIME COMPLETED        0.390    


  INCREMENT    40 STARTS. ATTEMPT NUMBER  1, TIME INCREMENT  1.000E-02
 
	SYMMETRIC DIRECT SPARSE SOLVER RUNNING ON
 	1 HOST:        1 MPI RANK  x 7 THREADS, 1 GPU PER RANK
 	NUMBER OF EQUATIONS:     4328
 	NUMBER OF RHS:           1
 	NUMBER OF FLOPS:         1.080e+07

     CHECK POINT  START OF SOLVER     

     CHECK POINT  END OF SOLVER       

       ELAPSED USER TIME (SEC)      =  0.20000    
       ELAPSED SYSTEM TIME (SEC)    =   0.0000    
       ELAPSED TOTAL CPU TIME (SEC) =  0.20000    
       ELAPSED WALLCLOCK TIME (SEC) =            0

               CONVERGENCE CHECKS FOR EQUILIBRIUM ITERATION     1


 AVERAGE FORCE                       177.       TIME AVG. FORCE        90.4    
 LARGEST RESIDUAL FORCE            -4.486E-05   AT NODE          2   DOF  2
   INSTANCE:                                                                                 
 LARGEST INCREMENT OF DISP.         1.702E-05   AT NODE          2   DOF  2
   INSTANCE: {assembly node}                                                                 
 LARGEST CORRECTION TO DISP.        1.484E-09   AT NODE          2   DOF  2
   INSTANCE: {assembly node}                                                                 
          THE FORCE     EQUILIBRIUM EQUATIONS HAVE CONVERGED

 ITERATION SUMMARY FOR THE INCREMENT:   1 TOTAL ITERATIONS, OF WHICH
   0 ARE SEVERE DISCONTINUITY ITERATIONS AND  1 ARE EQUILIBRIUM ITERATIONS.

 TIME INCREMENT COMPLETED  1.000E-02,  FRACTION OF STEP COMPLETED  0.400    
 STEP TIME COMPLETED       0.400    ,  TOTAL TIME COMPLETED        0.400    


  INCREMENT    41 STARTS. ATTEMPT NUMBER  1, TIME INCREMENT  1.000E-02
 
	SYMMETRIC DIRECT SPARSE SOLVER RUNNING ON
 	1 HOST:        1 MPI RANK  x 7 THREADS, 1 GPU PER RANK
 	NUMBER OF EQUATIONS:     4328
 	NUMBER OF RHS:           1
 	NUMBER OF FLOPS:         1.080e+07

     CHECK POINT  START OF SOLVER     

     CHECK POINT  END OF SOLVER       

       ELAPSED USER TIME (SEC)      =  0.10000    
       ELAPSED SYSTEM TIME (SEC)    =   0.0000    
       ELAPSED TOTAL CPU TIME (SEC) =  0.10000    
       ELAPSED WALLCLOCK TIME (SEC) =            0

               CONVERGENCE CHECKS FOR EQUILIBRIUM ITERATION     1


 AVERAGE FORCE                       181.       TIME AVG. FORCE        92.6    
 LARGEST RESIDUAL FORCE            -4.602E-05   AT NODE          2   DOF  2
   INSTANCE:                                                                                 
 LARGEST INCREMENT OF DISP.         1.703E-05   AT NODE          2   DOF  2
   INSTANCE: {assembly node}                                                                 
 LARGEST CORRECTION TO DISP.        1.484E-09   AT NODE         13   DOF  2
   INSTANCE: PLATE_1                                                                         
          THE FORCE     EQUILIBRIUM EQUATIONS HAVE CONVERGED

 ITERATION SUMMARY FOR THE INCREMENT:   1 TOTAL ITERATIONS, OF WHICH
   0 ARE SEVERE DISCONTINUITY ITERATIONS AND  1 ARE EQUILIBRIUM ITERATIONS.

 TIME INCREMENT COMPLETED  1.000E-02,  FRACTION OF STEP COMPLETED  0.410    
 STEP TIME COMPLETED       0.410    ,  TOTAL TIME COMPLETED        0.410    


  INCREMENT    42 STARTS. ATTEMPT NUMBER  1, TIME INCREMENT  1.000E-02
 
	SYMMETRIC DIRECT SPARSE SOLVER RUNNING ON
 	1 HOST:        1 MPI RANK  x 7 THREADS, 1 GPU PER RANK
 	NUMBER OF EQUATIONS:     4328
 	NUMBER OF RHS:           1
 	NUMBER OF FLOPS:         1.080e+07

     CHECK POINT  START OF SOLVER     

     CHECK POINT  END OF SOLVER       

       ELAPSED USER TIME (SEC)      =   0.0000    
       ELAPSED SYSTEM TIME (SEC)    =   0.0000    
       ELAPSED TOTAL CPU TIME (SEC) =   0.0000    
       ELAPSED WALLCLOCK TIME (SEC) =            0

               CONVERGENCE CHECKS FOR EQUILIBRIUM ITERATION     1


 AVERAGE FORCE                       185.       TIME AVG. FORCE        94.9    
 LARGEST RESIDUAL FORCE            -4.718E-05   AT NODE          2   DOF  2
   INSTANCE:                                                                                 
 LARGEST INCREMENT OF DISP.         1.703E-05   AT NODE          2   DOF  2
   INSTANCE: {assembly node}                                                                 
 LARGEST CORRECTION TO DISP.        1.484E-09   AT NODE         13   DOF  2
   INSTANCE: PLATE_1                                                                         
          THE FORCE     EQUILIBRIUM EQUATIONS HAVE CONVERGED

 ITERATION SUMMARY FOR THE INCREMENT:   1 TOTAL ITERATIONS, OF WHICH
   0 ARE SEVERE DISCONTINUITY ITERATIONS AND  1 ARE EQUILIBRIUM ITERATIONS.

 TIME INCREMENT COMPLETED  1.000E-02,  FRACTION OF STEP COMPLETED  0.420    
 STEP TIME COMPLETED       0.420    ,  TOTAL TIME COMPLETED        0.420    


  INCREMENT    43 STARTS. ATTEMPT NUMBER  1, TIME INCREMENT  1.000E-02
 
	SYMMETRIC DIRECT SPARSE SOLVER RUNNING ON
 	1 HOST:        1 MPI RANK  x 7 THREADS, 1 GPU PER RANK
 	NUMBER OF EQUATIONS:     4328
 	NUMBER OF RHS:           1
 	NUMBER OF FLOPS:         1.080e+07

     CHECK POINT  START OF SOLVER     

     CHECK POINT  END OF SOLVER       

       ELAPSED USER TIME (SEC)      =  0.10000    
       ELAPSED SYSTEM TIME (SEC)    =   0.0000    
       ELAPSED TOTAL CPU TIME (SEC) =  0.10000    
       ELAPSED WALLCLOCK TIME (SEC) =            0

               CONVERGENCE CHECKS FOR EQUILIBRIUM ITERATION     1


 AVERAGE FORCE                       190.       TIME AVG. FORCE        97.1    
 LARGEST RESIDUAL FORCE            -4.834E-05   AT NODE          2   DOF  2
   INSTANCE:                                                                                 
 LARGEST INCREMENT OF DISP.         1.703E-05   AT NODE          2   DOF  2
   INSTANCE: {assembly node}                                                                 
 LARGEST CORRECTION TO DISP.        1.485E-09   AT NODE         13   DOF  2
   INSTANCE: PLATE_1                                                                         
          THE FORCE     EQUILIBRIUM EQUATIONS HAVE CONVERGED

 ITERATION SUMMARY FOR THE INCREMENT:   1 TOTAL ITERATIONS, OF WHICH
   0 ARE SEVERE DISCONTINUITY ITERATIONS AND  1 ARE EQUILIBRIUM ITERATIONS.

 TIME INCREMENT COMPLETED  1.000E-02,  FRACTION OF STEP COMPLETED  0.430    
 STEP TIME COMPLETED       0.430    ,  TOTAL TIME COMPLETED        0.430    


  INCREMENT    44 STARTS. ATTEMPT NUMBER  1, TIME INCREMENT  1.000E-02
 
	SYMMETRIC DIRECT SPARSE SOLVER RUNNING ON
 	1 HOST:        1 MPI RANK  x 7 THREADS, 1 GPU PER RANK
 	NUMBER OF EQUATIONS:     4328
 	NUMBER OF RHS:           1
 	NUMBER OF FLOPS:         1.080e+07

     CHECK POINT  START OF SOLVER     

     CHECK POINT  END OF SOLVER       

       ELAPSED USER TIME (SEC)      =  0.20000    
       ELAPSED SYSTEM TIME (SEC)    =   0.0000    
       ELAPSED TOTAL CPU TIME (SEC) =  0.20000    
       ELAPSED WALLCLOCK TIME (SEC) =            0

               CONVERGENCE CHECKS FOR EQUILIBRIUM ITERATION     1


 AVERAGE FORCE                       194.       TIME AVG. FORCE        99.3    
 LARGEST RESIDUAL FORCE            -4.951E-05   AT NODE          2   DOF  2
   INSTANCE:                                                                                 
 LARGEST INCREMENT OF DISP.         1.703E-05   AT NODE          2   DOF  2
   INSTANCE: {assembly node}                                                                 
 LARGEST CORRECTION TO DISP.        1.485E-09   AT NODE          2   DOF  2
   INSTANCE: {assembly node}                                                                 
          THE FORCE     EQUILIBRIUM EQUATIONS HAVE CONVERGED

 ITERATION SUMMARY FOR THE INCREMENT:   1 TOTAL ITERATIONS, OF WHICH
   0 ARE SEVERE DISCONTINUITY ITERATIONS AND  1 ARE EQUILIBRIUM ITERATIONS.

 TIME INCREMENT COMPLETED  1.000E-02,  FRACTION OF STEP COMPLETED  0.440    
 STEP TIME COMPLETED       0.440    ,  TOTAL TIME COMPLETED        0.440    


  INCREMENT    45 STARTS. ATTEMPT NUMBER  1, TIME INCREMENT  1.000E-02
 
	SYMMETRIC DIRECT SPARSE SOLVER RUNNING ON
 	1 HOST:        1 MPI RANK  x 7 THREADS, 1 GPU PER RANK
 	NUMBER OF EQUATIONS:     4328
 	NUMBER OF RHS:           1
 	NUMBER OF FLOPS:         1.080e+07

     CHECK POINT  START OF SOLVER     

     CHECK POINT  END OF SOLVER       

       ELAPSED USER TIME (SEC)      =  0.20000    
       ELAPSED SYSTEM TIME (SEC)    =   0.0000    
       ELAPSED TOTAL CPU TIME (SEC) =  0.20000    
       ELAPSED WALLCLOCK TIME (SEC) =            0

               CONVERGENCE CHECKS FOR EQUILIBRIUM ITERATION     1


 AVERAGE FORCE                       199.       TIME AVG. FORCE        101.    
 LARGEST RESIDUAL FORCE            -5.067E-05   AT NODE          2   DOF  2
   INSTANCE:                                                                                 
 LARGEST INCREMENT OF DISP.         1.703E-05   AT NODE          2   DOF  2
   INSTANCE: {assembly node}                                                                 
 LARGEST CORRECTION TO DISP.        1.485E-09   AT NODE         13   DOF  2
   INSTANCE: PLATE_1                                                                         
          THE FORCE     EQUILIBRIUM EQUATIONS HAVE CONVERGED

 ITERATION SUMMARY FOR THE INCREMENT:   1 TOTAL ITERATIONS, OF WHICH
   0 ARE SEVERE DISCONTINUITY ITERATIONS AND  1 ARE EQUILIBRIUM ITERATIONS.

 TIME INCREMENT COMPLETED  1.000E-02,  FRACTION OF STEP COMPLETED  0.450    
 STEP TIME COMPLETED       0.450    ,  TOTAL TIME COMPLETED        0.450    


  INCREMENT    46 STARTS. ATTEMPT NUMBER  1, TIME INCREMENT  1.000E-02
 
	SYMMETRIC DIRECT SPARSE SOLVER RUNNING ON
 	1 HOST:        1 MPI RANK  x 7 THREADS, 1 GPU PER RANK
 	NUMBER OF EQUATIONS:     4328
 	NUMBER OF RHS:           1
 	NUMBER OF FLOPS:         1.080e+07

     CHECK POINT  START OF SOLVER     

     CHECK POINT  END OF SOLVER       

       ELAPSED USER TIME (SEC)      =  0.10000    
       ELAPSED SYSTEM TIME (SEC)    =   0.0000    
       ELAPSED TOTAL CPU TIME (SEC) =  0.10000    
       ELAPSED WALLCLOCK TIME (SEC) =            0

               CONVERGENCE CHECKS FOR EQUILIBRIUM ITERATION     1


 AVERAGE FORCE                       203.       TIME AVG. FORCE        104.    
 LARGEST RESIDUAL FORCE            -5.183E-05   AT NODE          2   DOF  2
   INSTANCE:                                                                                 
 LARGEST INCREMENT OF DISP.         1.703E-05   AT NODE          2   DOF  2
   INSTANCE: {assembly node}                                                                 
 LARGEST CORRECTION TO DISP.        1.485E-09   AT NODE          2   DOF  2
   INSTANCE: {assembly node}                                                                 
          THE FORCE     EQUILIBRIUM EQUATIONS HAVE CONVERGED

 ITERATION SUMMARY FOR THE INCREMENT:   1 TOTAL ITERATIONS, OF WHICH
   0 ARE SEVERE DISCONTINUITY ITERATIONS AND  1 ARE EQUILIBRIUM ITERATIONS.

 TIME INCREMENT COMPLETED  1.000E-02,  FRACTION OF STEP COMPLETED  0.460    
 STEP TIME COMPLETED       0.460    ,  TOTAL TIME COMPLETED        0.460    


  INCREMENT    47 STARTS. ATTEMPT NUMBER  1, TIME INCREMENT  1.000E-02
 
	SYMMETRIC DIRECT SPARSE SOLVER RUNNING ON
 	1 HOST:        1 MPI RANK  x 7 THREADS, 1 GPU PER RANK
[...]
 MAX. CORR. TO COEFF. OF DISP.    ON CONST. TERM     -2.990E-08   AT NODE        387   DOF  2
   INSTANCE: PLATE_1                                                                         
 MAX. CORR. TO COEFF. OF DISP.    ON PERIODIC TERMS   1.196E-09   AT NODE        387   DOF  2
   INSTANCE: PLATE_1                                                                         

     THE FORCE  CONVERGENCE HAS ACHIEVED WITHIN TOLERANCE FOR THIS ITERATION


                            ITERATION   3 STARTS:

   INC     TIME        STEP       LARG. RESI.   TIME AVG.   FORCE
           INC         TIME       FORCE         FORCE       EQUV.
  10      1.000E-02   0.100        14.0         16.6         N
  20      1.000E-02   0.200        15.8         16.6         N
  30      1.000E-02   0.300        13.9         16.6         N
  40      1.000E-02   0.400        15.7         16.6         N
  50      1.000E-02   0.500        29.7         16.7         N
  60      1.000E-02   0.600        15.7         16.7         N
  70      1.000E-02   0.700        13.9         16.8         N
  80      1.000E-02   0.800        15.8         16.8         N
  90      1.000E-02   0.900        14.0         16.7         N
 100      1.000E-02    1.00       4.693E-11     16.7         Y
 
	SYMMETRIC DIRECT SPARSE SOLVER RUNNING ON
 	1 HOST:        1 MPI RANK  x 7 THREADS, 1 GPU PER RANK
 	NUMBER OF EQUATIONS:     4360
 	NUMBER OF RHS:           51
 	NUMBER OF FLOPS:         1.105e+07

     CHECK POINT  START OF SOLVER     

     CHECK POINT  END OF SOLVER       

       ELAPSED USER TIME (SEC)      =  0.10000    
       ELAPSED SYSTEM TIME (SEC)    =   0.0000    
       ELAPSED TOTAL CPU TIME (SEC) =  0.10000    
       ELAPSED WALLCLOCK TIME (SEC) =            0

                            ITERATION     3 SUMMARY

 NUMBER OF FOURIER TERMS USED   25,  TOTAL NUMBER OF INCREMENTS  100
 TOTAL CYCLE/STEP TIME        1.00    ,  TOTAL TIME COMPLETED         45.0    

 AVERAGE FORCE                     0.125       TIME AVG. FORCE       16.7    
 MAX. COEFFICIENT OF DISP.                            7.851E-05   AT NODE          2   DOF  2
   INSTANCE:                                                                                 
 MAX. COEFF. OF RESI. FORCE  ON CONST. TERM           4.655E-11   AT NODE          2   DOF  2
   INSTANCE:                                                                                 
 MAX. COEFF. OF RESI. FORCE  ON PERIODIC TERMS       -4.021E-11   AT NODE          2   DOF  2
   INSTANCE:                                                                                 
 MAX. CORR. TO COEFF. OF DISP.    ON CONST. TERM     -5.389E-20   AT NODE       2182   DOF  2
   INSTANCE: PLATE_1                                                                         
 MAX. CORR. TO COEFF. OF DISP.    ON PERIODIC TERMS  -2.371E-20   AT NODE       1911   DOF  2
   INSTANCE: PLATE_1                                                                         

     THE FORCE  CONVERGENCE HAS ACHIEVED WITHIN TOLERANCE FOR THIS ITERATION


                            CYCLE       47 STARTS:



                            ITERATION   1 STARTS:

   INC     TIME        STEP       LARG. RESI.   TIME AVG.   FORCE
           INC         TIME       FORCE         FORCE       EQUV.
  10      1.000E-02   0.100       -835.         16.6         N
  20      1.000E-02   0.200      -1.690E+03     16.6         N
  30      1.000E-02   0.300      -2.551E+03     16.6         N
  40      1.000E-02   0.400      -3.405E+03     16.7         N
  50      1.000E-02   0.500      -4.239E+03     16.7         N
  60      1.000E-02   0.600      -3.405E+03     16.8         N
  70      1.000E-02   0.700      -2.551E+03     16.8         N
  80      1.000E-02   0.800      -1.690E+03     16.9         N
  90      1.000E-02   0.900       -835.         16.8         N
 100      1.000E-02    1.00       -1.63         16.8         N
 
	SYMMETRIC DIRECT SPARSE SOLVER RUNNING ON
 	1 HOST:        1 MPI RANK  x 7 THREADS, 1 GPU PER RANK
 	NUMBER OF EQUATIONS:     4364
 	NUMBER OF RHS:           51
 	NUMBER OF FLOPS:         1.117e+07

     CHECK POINT  START OF SOLVER     

     CHECK POINT  END OF SOLVER       

       ELAPSED USER TIME (SEC)      =  0.20000    
       ELAPSED SYSTEM TIME (SEC)    =   0.0000    
       ELAPSED TOTAL CPU TIME (SEC) =  0.20000    
       ELAPSED WALLCLOCK TIME (SEC) =            1

                            ITERATION     1 SUMMARY

 NUMBER OF FOURIER TERMS USED   25,  TOTAL NUMBER OF INCREMENTS  100
 TOTAL CYCLE/STEP TIME        1.00    ,  TOTAL TIME COMPLETED         48.0    

 AVERAGE FORCE                     0.127       TIME AVG. FORCE       16.8    
 MAX. COEFFICIENT OF DISP.                            8.238E-05   AT NODE          2   DOF  2
   INSTANCE:                                                                                 
 MAX. COEFF. OF RESI. FORCE  ON CONST. TERM          -2.121E+03   AT NODE        398   DOF  2
   INSTANCE: PLATE_1                                                                         
 MAX. COEFF. OF RESI. FORCE  ON PERIODIC TERMS        1.739E+03   AT NODE        398   DOF  2
   INSTANCE: PLATE_1                                                                         
 MAX. CORR. TO COEFF. OF DISP.    ON CONST. TERM      9.672E-06   AT NODE        397   DOF  2
   INSTANCE: PLATE_1                                                                         
 MAX. CORR. TO COEFF. OF DISP.    ON PERIODIC TERMS  -7.805E-06   AT NODE        397   DOF  2
   INSTANCE: PLATE_1                                                                         

     THE FORCE  CONVERGENCE NOT ACHIEVED WITHIN TOLERANCE FOR THIS ITERATION


                            ITERATION   2 STARTS:

   INC     TIME        STEP       LARG. RESI.   TIME AVG.   FORCE
           INC         TIME       FORCE         FORCE       EQUV.
  10      1.000E-02   0.100        14.0         16.7         N
  20      1.000E-02   0.200        15.8         16.7         N
  30      1.000E-02   0.300        13.9         16.7         N
  40      1.000E-02   0.400        15.7         16.8         N
  50      1.000E-02   0.500        29.7         16.8         N
  60      1.000E-02   0.600        15.7         16.9         N
  70      1.000E-02   0.700        13.9         16.9         N
  80      1.000E-02   0.800        15.8         16.9         N
  90      1.000E-02   0.900        14.0         16.9         N
 100      1.000E-02    1.00      -7.187E-11     16.8         Y
 
	SYMMETRIC DIRECT SPARSE SOLVER RUNNING ON
 	1 HOST:        1 MPI RANK  x 7 THREADS, 1 GPU PER RANK
 	NUMBER OF EQUATIONS:     4364
 	NUMBER OF RHS:           51
 	NUMBER OF FLOPS:         1.117e+07

     CHECK POINT  START OF SOLVER     

     CHECK POINT  END OF SOLVER       

       ELAPSED USER TIME (SEC)      =  0.20000    
       ELAPSED SYSTEM TIME (SEC)    =  0.10000    
       ELAPSED TOTAL CPU TIME (SEC) =  0.30000    
       ELAPSED WALLCLOCK TIME (SEC) =            0

                            ITERATION     2 SUMMARY

 NUMBER OF FOURIER TERMS USED   25,  TOTAL NUMBER OF INCREMENTS  100
 TOTAL CYCLE/STEP TIME        1.00    ,  TOTAL TIME COMPLETED         48.0    

 AVERAGE FORCE                     0.127       TIME AVG. FORCE       16.8    
 MAX. COEFFICIENT OF DISP.                            8.237E-05   AT NODE          2   DOF  2
   INSTANCE:                                                                                 
 MAX. COEFF. OF RESI. FORCE  ON CONST. TERM           0.407       AT NODE        398   DOF  2
   INSTANCE: PLATE_1                                                                         
 MAX. COEFF. OF RESI. FORCE  ON PERIODIC TERMS       -1.627E-02   AT NODE        398   DOF  2
   INSTANCE: PLATE_1                                                                         
 MAX. CORR. TO COEFF. OF DISP.    ON CONST. TERM     -3.269E-08   AT NODE        397   DOF  2
   INSTANCE: PLATE_1                                                                         
 MAX. CORR. TO COEFF. OF DISP.    ON PERIODIC TERMS   1.308E-09   AT NODE        397   DOF  2
   INSTANCE: PLATE_1                                                                         

     THE FORCE  CONVERGENCE HAS ACHIEVED WITHIN TOLERANCE FOR THIS ITERATION


                            ITERATION   3 STARTS:

   INC     TIME        STEP       LARG. RESI.   TIME AVG.   FORCE
           INC         TIME       FORCE         FORCE       EQUV.
  10      1.000E-02   0.100        14.0         16.8         N
  20      1.000E-02   0.200        15.8         16.8         N
  30      1.000E-02   0.300        13.9         16.8         N
  40      1.000E-02   0.400        15.7         16.8         N
  50      1.000E-02   0.500        29.7         16.9         N
  60      1.000E-02   0.600        15.7         16.9         N
  70      1.000E-02   0.700        13.9         17.0         N
  80      1.000E-02   0.800        15.8         17.0         N
  90      1.000E-02   0.900        14.0         16.9         N
 100      1.000E-02    1.00       3.451E-11     16.9         Y
 
	SYMMETRIC DIRECT SPARSE SOLVER RUNNING ON
 	1 HOST:        1 MPI RANK  x 7 THREADS, 1 GPU PER RANK
 	NUMBER OF EQUATIONS:     4364
 	NUMBER OF RHS:           51
 	NUMBER OF FLOPS:         1.117e+07

     CHECK POINT  START OF SOLVER     

     CHECK POINT  END OF SOLVER       

       ELAPSED USER TIME (SEC)      =  0.10000    
       ELAPSED SYSTEM TIME (SEC)    =   0.0000    
       ELAPSED TOTAL CPU TIME (SEC) =  0.10000    
       ELAPSED WALLCLOCK TIME (SEC) =            0

                            ITERATION     3 SUMMARY

 NUMBER OF FOURIER TERMS USED   25,  TOTAL NUMBER OF INCREMENTS  100
 TOTAL CYCLE/STEP TIME        1.00    ,  TOTAL TIME COMPLETED         48.0    

 AVERAGE FORCE                     0.127       TIME AVG. FORCE       16.9    
 MAX. COEFFICIENT OF DISP.                            8.237E-05   AT NODE          2   DOF  2
   INSTANCE:                                                                                 
 MAX. COEFF. OF RESI. FORCE  ON CONST. TERM           2.216E-11   AT NODE          2   DOF  2
   INSTANCE:                                                                                 
 MAX. COEFF. OF RESI. FORCE  ON PERIODIC TERMS       -1.699E-11   AT NODE          2   DOF  2
   INSTANCE:                                                                                 
 MAX. CORR. TO COEFF. OF DISP.    ON CONST. TERM     -4.340E-20   AT NODE       1724   DOF  2
   INSTANCE: PLATE_1                                                                         
 MAX. CORR. TO COEFF. OF DISP.    ON PERIODIC TERMS  -2.329E-20   AT NODE       1927   DOF  2
   INSTANCE: PLATE_1                                                                         

     THE FORCE  CONVERGENCE HAS ACHIEVED WITHIN TOLERANCE FOR THIS ITERATION


                            CYCLE       50 STARTS:



                            ITERATION   1 STARTS:

   INC     TIME        STEP       LARG. RESI.   TIME AVG.   FORCE
           INC         TIME       FORCE         FORCE       EQUV.
  10      1.000E-02   0.100       -879.         16.8         N
  20      1.000E-02   0.200      -1.778E+03     16.8         N
  30      1.000E-02   0.300      -2.684E+03     16.8         N
  40      1.000E-02   0.400      -3.583E+03     16.9         N
  50      1.000E-02   0.500      -4.460E+03     16.9         N
  60      1.000E-02   0.600      -3.583E+03     17.0         N
  70      1.000E-02   0.700      -2.684E+03     17.0         N
  80      1.000E-02   0.800      -1.778E+03     17.0         N
  90      1.000E-02   0.900       -879.         17.0         N
 100      1.000E-02    1.00       -1.74         17.0         N
 
	SYMMETRIC DIRECT SPARSE SOLVER RUNNING ON
 	1 HOST:        1 MPI RANK  x 7 THREADS, 1 GPU PER RANK
 	NUMBER OF EQUATIONS:     4368
 	NUMBER OF RHS:           51
 	NUMBER OF FLOPS:         1.131e+07

     CHECK POINT  START OF SOLVER     

     CHECK POINT  END OF SOLVER       

       ELAPSED USER TIME (SEC)      =  0.20000    
       ELAPSED SYSTEM TIME (SEC)    =   0.0000    
       ELAPSED TOTAL CPU TIME (SEC) =  0.20000    
       ELAPSED WALLCLOCK TIME (SEC) =            0

                            ITERATION     1 SUMMARY

 NUMBER OF FOURIER TERMS USED   25,  TOTAL NUMBER OF INCREMENTS  100
 TOTAL CYCLE/STEP TIME        1.00    ,  TOTAL TIME COMPLETED         51.0    

 AVERAGE FORCE                     0.129       TIME AVG. FORCE       17.0    
 MAX. COEFFICIENT OF DISP.                            8.682E-05   AT NODE          2   DOF  2
   INSTANCE:                                                                                 
 MAX. COEFF. OF RESI. FORCE  ON CONST. TERM          -2.231E+03   AT NODE        408   DOF  2
   INSTANCE: PLATE_1                                                                         
 MAX. COEFF. OF RESI. FORCE  ON PERIODIC TERMS        1.829E+03   AT NODE        408   DOF  2
   INSTANCE: PLATE_1                                                                         
 MAX. CORR. TO COEFF. OF DISP.    ON CONST. TERM      1.056E-05   AT NODE        407   DOF  2
   INSTANCE: PLATE_1                                                                         
 MAX. CORR. TO COEFF. OF DISP.    ON PERIODIC TERMS  -8.524E-06   AT NODE        407   DOF  2
   INSTANCE: PLATE_1                                                                         

     THE FORCE  CONVERGENCE NOT ACHIEVED WITHIN TOLERANCE FOR THIS ITERATION


                            ITERATION   2 STARTS:

   INC     TIME        STEP       LARG. RESI.   TIME AVG.   FORCE
           INC         TIME       FORCE         FORCE       EQUV.
  10      1.000E-02   0.100        14.0         16.9         N
  20      1.000E-02   0.200        15.8         16.9         N
  30      1.000E-02   0.300        13.9         16.9         N
  40      1.000E-02   0.400        15.7         17.0         N
  50      1.000E-02   0.500        29.7         17.0         N
  60      1.000E-02   0.600        15.7         17.1         N
  70      1.000E-02   0.700        13.9         17.1         N
  80      1.000E-02   0.800        15.8         17.1         N
  90      1.000E-02   0.900        14.0         17.1         N
 100      1.000E-02    1.00      -1.170E-11     17.0         Y
 
	SYMMETRIC DIRECT SPARSE SOLVER RUNNING ON
 	1 HOST:        1 MPI RANK  x 7 THREADS, 1 GPU PER RANK
 	NUMBER OF EQUATIONS:     4368
 	NUMBER OF RHS:           51
 	NUMBER OF FLOPS:         1.131e+07

     CHECK POINT  START OF SOLVER     

     CHECK POINT  END OF SOLVER       

       ELAPSED USER TIME (SEC)      =  0.20000    
       ELAPSED SYSTEM TIME (SEC)    =   0.0000    
       ELAPSED TOTAL CPU TIME (SEC) =  0.20000    
       ELAPSED WALLCLOCK TIME (SEC) =            0

                            ITERATION     2 SUMMARY

 NUMBER OF FOURIER TERMS USED   25,  TOTAL NUMBER OF INCREMENTS  100
 TOTAL CYCLE/STEP TIME        1.00    ,  TOTAL TIME COMPLETED         51.0    

 AVERAGE FORCE                     0.129       TIME AVG. FORCE       17.0    
 MAX. COEFFICIENT OF DISP.                            8.680E-05   AT NODE          2   DOF  2
   INSTANCE:                                                                                 
 MAX. COEFF. OF RESI. FORCE  ON CONST. TERM           0.435       AT NODE        408   DOF  2
   INSTANCE: PLATE_1                                                                         
 MAX. COEFF. OF RESI. FORCE  ON PERIODIC TERMS       -1.739E-02   AT NODE        408   DOF  2
   INSTANCE: PLATE_1                                                                         
 MAX. CORR. TO COEFF. OF DISP.    ON CONST. TERM     -3.560E-08   AT NODE        407   DOF  2
   INSTANCE: PLATE_1                                                                         
 MAX. CORR. TO COEFF. OF DISP.    ON PERIODIC TERMS   1.424E-09   AT NODE        407   DOF  2
   INSTANCE: PLATE_1                                                                         

     THE FORCE  CONVERGENCE HAS ACHIEVED WITHIN TOLERANCE FOR THIS ITERATION


                            ITERATION   3 STARTS:

   INC     TIME        STEP       LARG. RESI.   TIME AVG.   FORCE
           INC         TIME       FORCE         FORCE       EQUV.
  10      1.000E-02   0.100        14.0         17.0         N
  20      1.000E-02   0.200        15.8         17.0         N
  30      1.000E-02   0.300        13.9         17.0         N
  40      1.000E-02   0.400        15.7         17.0         N
  50      1.000E-02   0.500        29.7         17.1         N
  60      1.000E-02   0.600        15.7         17.1         N
  70      1.000E-02   0.700        13.9         17.2         N
  80      1.000E-02   0.800        15.8         17.2         N
  90      1.000E-02   0.900        14.0         17.1         N
 100      1.000E-02    1.00       2.059E-11     17.1         Y
 
	SYMMETRIC DIRECT SPARSE SOLVER RUNNING ON
 	1 HOST:        1 MPI RANK  x 7 THREADS, 1 GPU PER RANK
 	NUMBER OF EQUATIONS:     4368
 	NUMBER OF RHS:           51
 	NUMBER OF FLOPS:         1.131e+07

     CHECK POINT  START OF SOLVER     

     CHECK POINT  END OF SOLVER       

       ELAPSED USER TIME (SEC)      =  0.10000    
       ELAPSED SYSTEM TIME (SEC)    =   0.0000    
       ELAPSED TOTAL CPU TIME (SEC) =  0.10000    
       ELAPSED WALLCLOCK TIME (SEC) =            0

                            ITERATION     3 SUMMARY

 NUMBER OF FOURIER TERMS USED   25,  TOTAL NUMBER OF INCREMENTS  100
 TOTAL CYCLE/STEP TIME        1.00    ,  TOTAL TIME COMPLETED         51.0    

 AVERAGE FORCE                     0.129       TIME AVG. FORCE       17.1    
 MAX. COEFFICIENT OF DISP.                            8.680E-05   AT NODE          2   DOF  2
   INSTANCE:                                                                                 
 MAX. COEFF. OF RESI. FORCE  ON CONST. TERM          -1.126E-11   AT NODE        483   DOF  2
   INSTANCE: PLATE_1                                                                         
 MAX. COEFF. OF RESI. FORCE  ON PERIODIC TERMS       -2.227E-11   AT NODE          2   DOF  2
   INSTANCE:                                                                                 
 MAX. CORR. TO COEFF. OF DISP.    ON CONST. TERM      4.409E-20   AT NODE       2085   DOF  2
   INSTANCE: PLATE_1                                                                         
 MAX. CORR. TO COEFF. OF DISP.    ON PERIODIC TERMS  -2.207E-20   AT NODE       2085   DOF  2
   INSTANCE: PLATE_1                                                                         

     THE FORCE  CONVERGENCE HAS ACHIEVED WITHIN TOLERANCE FOR THIS ITERATION


          THE ANALYSIS HAS BEEN COMPLETED



     ANALYSIS SUMMARY:
     TOTAL OF       3200  INCREMENTS
                       0  CUTBACKS IN AUTOMATIC INCREMENTATION
                     134  ITERATIONS INCLUDING CONTACT ITERATIONS IF PRESENT
                     134  PASSES THROUGH THE EQUATION SOLVER OF WHICH 
                     113  INVOLVE MATRIX DECOMPOSITION, INCLUDING
                       0  DECOMPOSITION(S) OF THE MASS MATRIX
                       1  REORDERING OF EQUATIONS TO MINIMIZE WAVEFRONT
                       0  ADDITIONAL RESIDUAL EVALUATIONS FOR LINE SEARCHES
                       0  ADDITIONAL OPERATOR EVALUATIONS FOR LINE SEARCHES
                       4  WARNING MESSAGES DURING USER INPUT PROCESSING
                       0  WARNING MESSAGES DURING ANALYSIS
                       0  ANALYSIS WARNINGS ARE NUMERICAL PROBLEM MESSAGES
                       0  ANALYSIS WARNINGS ARE NEGATIVE EIGENVALUE MESSAGES
                       0  ERROR MESSAGES



     JOB TIME SUMMARY
       USER TIME (SEC)      =     3.54E+02
       SYSTEM TIME (SEC)    =      28.    
       TOTAL CPU TIME (SEC) =     3.82E+02
       WALLCLOCK TIME (SEC) =          172
       MEMORY PEAK (GB)     =            0
