*Heading
 Crack initiation and propagation in a plate with a hole (XFEM)
** Job name: crack_lefm_xfem Model name: Crack_propagation_lefm
** Generated by: Abaqus/CAE 6.12-DEV
*Preprint, echo=NO, model=NO, history=NO, contact=NO
**
** PARTS
**
*Part, name=plate
*Node
      1, 0.0218218211, -0.00999999978
      2, 0.0218218211, 0.00999999978
      3, 0.0173205081, 0.00999999978
      4, 0.0173205081, -0.00999999978
      5,  0.100000001, -0.00999999978
      6,  0.100000001, 0.00999999978
      7,  0.100000001, -0.0700000003
      8,           0., -0.0199999996
      9,           0., -0.170000002
     10,  0.100000001, -0.170000002
     11,  0.100000001, 0.0700000003
     12,           0., 0.0199999996
     13,  0.100000001,  0.170000002
     14,           0.,  0.170000002
     15,  0.022535732, -0.00826635398
     16, 0.0231121592, -0.00648227753
     17, 0.0235475861, -0.00465865433
     18, 0.0238393545, -0.00280660996
     19, 0.0239856839, -0.000937442994
     20, 0.0239856839, 0.000937442994
** ... 2164 like lines cut
*Element, type=CPE4
 1,  1, 15, 34,  4
 2, 15, 16, 33, 34
 3, 16, 17, 32, 33
 4, 17, 18, 31, 32
 5, 18, 19, 30, 31
 6, 19, 20, 29, 30
 7, 20, 21, 28, 29
 8, 21, 22, 27, 28
 9, 22, 23, 26, 27
10, 23, 24, 25, 26
11, 24,  2,  3, 25
 12,   2,  24, 333,  80
 13,  24,  23, 334, 333
 14,  23,  22, 335, 334
 15,  22,  21, 336, 335
 16,  21,  20, 337, 336
 17,  20,  19, 338, 337
 18,  19,  18, 339, 338
 19,  18,  17, 340, 339
 20,  17,  16, 341, 340
** ... 2040 like lines cut
*Nset, nset=All, generate
    1,  2184,     1
*Elset, elset=All, generate
    1,  2060,     1
*Nset, nset=xsymm
   8,   9,  12,  14, 100, 101, 102, 103, 104, 105, 106, 107, 108, 109, 110, 111
 112, 113, 114, 115, 116, 117, 118, 119, 120, 121, 122, 123, 124, 125, 126, 127
 128, 129, 130, 131, 132, 133, 134, 135, 136, 137, 138, 294, 295, 296, 297, 298
 299, 300, 301, 302, 303, 304, 305, 306, 307, 308, 309, 310, 311, 312, 313, 314
 315, 316, 317, 318, 319, 320, 321, 322, 323, 324, 325, 326, 327, 328, 329, 330
 331, 332
*Elset, elset=xsymm
  240,  260,  280,  300,  320,  340,  360,  380,  400,  420,  440,  460,  480,  500,  520,  540
  560,  580,  600,  620,  640,  660,  680,  700,  720,  740,  760,  780,  800,  820,  840,  860
  880,  900,  920,  940,  960,  980, 1000, 1020, 1261, 1281, 1301, 1321, 1341, 1361, 1381, 1401
 1421, 1441, 1461, 1481, 1501, 1521, 1541, 1561, 1581, 1601, 1621, 1641, 1661, 1681, 1701, 1721
 1741, 1761, 1781, 1801, 1821, 1841, 1861, 1881, 1901, 1921, 1941, 1961, 1981, 2001, 2021, 2041
*Nset, nset=bottom
   9,  10, 139, 140, 141, 142, 143, 144, 145, 146, 147, 148, 149, 150, 151, 152
 153, 154, 155, 156, 157
*Elset, elset=bottom, generate
 1001,  1020,     1
*Nset, nset=top
  13,  14, 275, 276, 277, 278, 279, 280, 281, 282, 283, 284, 285, 286, 287, 288
 289, 290, 291, 292, 293
*Elset, elset=top, generate
 2041,  2060,     1
*Orientation, name=Ori-1
1., 0., 0., 0., 1., 0.
1, 0.
** Section: solid
*Solid Section, elset=All, orientation=Ori-1, material=elas
0.02,
*End Part
**  
**
** ASSEMBLY
**
*Assembly, name=Assembly
**  
*Instance, name=plate_1, part=plate
*End Instance
**  
*Node
      1, 0.0500000007, -0.170000002,           0.
*Node
      2, 0.0500000007,  0.170000002,           0.
*Nset, nset=bdisp
 1,
*Nset, nset=tdisp
 2,
*Nset, nset=rdisp
 1, 2
** Constraint: ce_bot
*Equation
2
plate_1.bottom, 2, 1.
bdisp, 2, -1.
** Constraint: ce_top
*Equation
2
plate_1.top, 2, 1.
tdisp, 2, -1.
*Enrichment, name=enr1, type=PROPAGATION CRACK, elset=plate_1.All, interaction=contact
*End Assembly
*Amplitude, name=Amp-1
             0.,              0.,              1.,              1.
** 
** MATERIALS
** 
*Material, name=elas
*Damage Initiation, criterion=MAXPS, tolerance=0.01
 2.2e+07,
*Elastic
 3.24e+09, 0.3
** 
** INTERACTION PROPERTIES
** 
*Surface Interaction, name=contact
1.,
*Surface Behavior
*Fracture Criterion, type=VCCT, mixed mode behavior=POWER, normal direction=MTS, tolerance=0.1, viscosity=1e-05
2870.,2870.,   0.,   1.,   1.,   1.
*FRACTURE CRITERION,TYPE=FATIGUE,MIXED MODE BEHAVIOR=POWER
0.5,-0.1,4.8768E-6,1.15,0.001,,2870.,2870.
0,1.0,1.0,1.0
** 
** BOUNDARY CONDITIONS
** 
** Name: symm Type: Displacement/Rotation
*Boundary
plate_1.xsymm, 1, 1
** ----------------------------------------------------------------
** 
** STEP: Static
** 
*amplitude,name=amp1
0,6.72E-3,0.5,1,1.0,6.72E-3
*amplitude,name=amp2
0,0,0.5,1,1.0,0.001
*Step, name=Static, nlgeom=YES, inc=100000
*Static
0.01, 1., 1e-09, 0.01
** 
** BOUNDARY CONDITIONS
** 
** Name: bot Type: Displacement/Rotation
*Boundary
bdisp, 2
*cload,amp=amp2
 tdisp, 2, 16800
** 
** CONTROLS
** 
*Controls, reset
*Controls, analysis=discontinuous
*Controls, parameters=time incrementation
, , , , , , , 20, , , 
** 
** OUTPUT REQUESTS
** 
*Restart, write, frequency=0
** 
** FIELD OUTPUT: F-Output-1
** 
*Output, field
*Node Output
PHILSM, RF, U
*Element Output, directions=YES
LE, S, STATUSXFEM
** 
** HISTORY OUTPUT: H-Output-2
** 
*Output, history
*Node Output, nset=rdisp
RF2, U2
** 
** HISTORY OUTPUT: H-Output-1
** 
*Output, history, variable=PRESELECT
*End Step
*Step,inc=10000
*direct cyclic,fatigue
0.01,1,,,25,25,,30
3,6,50,1.1
*controls,type=direct cyclic
,100,1E-3,100,1E-3
*cload,amp=amp1,op=new
 tdisp, 2, 2500
** bdisp, 2,-2500
*output,field, freq=50
*node output
 u,philsm
*element output
 s, statusxfem,enrrtxfem
*output,history,freq=50
*node output, nset=rdisp
 u2, rf2
*end step
