 Abaqus/Standard 2022.HF2                  DATE 30-Sep-2022 TIME 14:06:12
 SUMMARY OF JOB INFORMATION:
 STEP  INC ATT SEVERE EQUIL TOTAL  TOTAL      STEP       INC OF       DOF    IF
               DISCON ITERS ITERS  TIME/    TIME/LPF    TIME/LPF    MONITOR RIKS
               ITERS               FREQ
   1     1   1     0     2     2  0.0100     0.0100     0.01000   
   1     2   1     0     1     1  0.0200     0.0200     0.01000   
   1     3   1     0     1     1  0.0300     0.0300     0.01000   
   1     4   1     0     1     1  0.0400     0.0400     0.01000   
   1     5   1     0     1     1  0.0500     0.0500     0.01000   
   1     6   1     0     1     1  0.0600     0.0600     0.01000   
   1     7   1     0     1     1  0.0700     0.0700     0.01000   
   1     8   1     0     1     1  0.0800     0.0800     0.01000   
   1     9   1     0     1     1  0.0900     0.0900     0.01000   
   1    10   1     0     1     1  0.100      0.100      0.01000   
   1    11   1     0     1     1  0.110      0.110      0.01000   
   1    12   1     0     1     1  0.120      0.120      0.01000   
   1    13   1     0     1     1  0.130      0.130      0.01000   
   1    14   1     0     1     1  0.140      0.140      0.01000   
   1    15   1     0     1     1  0.150      0.150      0.01000   
   1    16   1     0     1     1  0.160      0.160      0.01000   
   1    17   1     0     1     1  0.170      0.170      0.01000   
   1    18   1     0     1     1  0.180      0.180      0.01000   
   1    19   1     0     1     1  0.190      0.190      0.01000   
   1    20   1     0     1     1  0.200      0.200      0.01000   
   1    21   1     0     1     1  0.210      0.210      0.01000   
   1    22   1     0     1     1  0.220      0.220      0.01000   
   1    23   1     0     1     1  0.230      0.230      0.01000   
   1    24   1     0     1     1  0.240      0.240      0.01000   
   1    25   1     0     1     1  0.250      0.250      0.01000   
   1    26   1     0     1     1  0.260      0.260      0.01000   
   1    27   1     0     1     1  0.270      0.270      0.01000   
   1    28   1     0     1     1  0.280      0.280      0.01000   
   1    29   1     0     1     1  0.290      0.290      0.01000   
   1    30   1     0     1     1  0.300      0.300      0.01000   
   1    31   1     0     1     1  0.310      0.310      0.01000   
   1    32   1     0     1     1  0.320      0.320      0.01000   
   1    33   1     0     1     1  0.330      0.330      0.01000   
   1    34   1     0     1     1  0.340      0.340      0.01000   
   1    35   1     0     1     1  0.350      0.350      0.01000   
   1    36   1     0     1     1  0.360      0.360      0.01000   
   1    37   1     0     1     1  0.370      0.370      0.01000   
   1    38   1     0     1     1  0.380      0.380      0.01000   
   1    39   1     0     1     1  0.390      0.390      0.01000   
   1    40   1     0     1     1  0.400      0.400      0.01000   
   1    41   1     0     1     1  0.410      0.410      0.01000   
   1    42   1     0     1     1  0.420      0.420      0.01000   
   1    43   1     0     1     1  0.430      0.430      0.01000   
   1    44   1     0     1     1  0.440      0.440      0.01000   
   1    45   1     0     1     1  0.450      0.450      0.01000   
   1    46   1     0     1     1  0.460      0.460      0.01000   
   1    47   1     0     1     1  0.470      0.470      0.01000   
   1    48   1     0     1     1  0.480      0.480      0.01000   
   1    49   1     0     1     1  0.490      0.490      0.01000   
   1    50   1     0     1     1  0.500      0.500      0.01000   
   1    51   1     0     2     2  0.510      0.510      0.01000   
   1    52   1     0     2     2  0.520      0.520      0.01000   
   1    53   1     0     1     1  0.530      0.530      0.01000   
   1    54   1     0     1     1  0.540      0.540      0.01000   
   1    55   1     0     1     1  0.550      0.550      0.01000   
   1    56   1     0     1     1  0.560      0.560      0.01000   
   1    57   1     0     1     1  0.570      0.570      0.01000   
   1    58   1     0     1     1  0.580      0.580      0.01000   
   1    59   1     0     1     1  0.590      0.590      0.01000   
   1    60   1     0     1     1  0.600      0.600      0.01000   
   1    61   1     0     1     1  0.610      0.610      0.01000   
   1    62   1     0     1     1  0.620      0.620      0.01000   
   1    63   1     0     1     1  0.630      0.630      0.01000   
   1    64   1     0     1     1  0.640      0.640      0.01000   
   1    65   1     0     1     1  0.650      0.650      0.01000   
   1    66   1     0     1     1  0.660      0.660      0.01000   
   1    67   1     0     1     1  0.670      0.670      0.01000   
   1    68   1     0     1     1  0.680      0.680      0.01000   
   1    69   1     0     1     1  0.690      0.690      0.01000   
   1    70   1     0     1     1  0.700      0.700      0.01000   
   1    71   1     0     1     1  0.710      0.710      0.01000   
   1    72   1     0     1     1  0.720      0.720      0.01000   
   1    73   1     0     1     1  0.730      0.730      0.01000   
   1    74   1     0     1     1  0.740      0.740      0.01000   
   1    75   1     0     1     1  0.750      0.750      0.01000   
   1    76   1     0     1     1  0.760      0.760      0.01000   
   1    77   1     0     1     1  0.770      0.770      0.01000   
   1    78   1     0     1     1  0.780      0.780      0.01000   
   1    79   1     0     1     1  0.790      0.790      0.01000   
   1    80   1     0     1     1  0.800      0.800      0.01000   
   1    81   1     0     1     1  0.810      0.810      0.01000   
   1    82   1     0     1     1  0.820      0.820      0.01000   
   1    83   1     0     1     1  0.830      0.830      0.01000   
   1    84   1     0     1     1  0.840      0.840      0.01000   
   1    85   1     0     1     1  0.850      0.850      0.01000   
   1    86   1     0     1     1  0.860      0.860      0.01000   
   1    87   1     0     1     1  0.870      0.870      0.01000   
   1    88   1     0     1     1  0.880      0.880      0.01000   
   1    89   1     0     1     1  0.890      0.890      0.01000   
   1    90   1     0     1     1  0.900      0.900      0.01000   
   1    91   1     0     1     1  0.910      0.910      0.01000   
   1    92   1     0     1     1  0.920      0.920      0.01000   
   1    93   1     0     1     1  0.930      0.930      0.01000   
   1    94   1     0     1     1  0.940      0.940      0.01000   
   1    95   1     0     1     1  0.950      0.950      0.01000   
   1    96   1     0     1     1  0.960      0.960      0.01000   
   1    97   1     0     1     1  0.970      0.970      0.01000   
   1    98   1     0     1     1  0.980      0.980      0.01000   
   1    99   1     0     1     1  0.990      0.990      0.01000   
   1   100   1     0     1     1  1.00       1.00       0.01000   
 STEP  CYCLE  ITER  INC  ATT  TOTAL      STEP       INC OF       DOF    
                              TIME       TIME        TIME       MONITOR 
   2     1     1   1     1   1.01       0.0100     0.01000   
   2     1     1   2     1   1.02       0.0200     0.01000   
   2     1     1   3     1   1.03       0.0300     0.01000   
   2     1     1   4     1   1.04       0.0400     0.01000   
   2     1     1   5     1   1.05       0.0500     0.01000   
   2     1     1   6     1   1.06       0.0600     0.01000   
   2     1     1   7     1   1.07       0.0700     0.01000   
   2     1     1   8     1   1.08       0.0800     0.01000   
   2     1     1   9     1   1.09       0.0900     0.01000   
   2     1     1  10     1   1.10       0.100      0.01000   
   2     1     1  11     1   1.11       0.110      0.01000   
   2     1     1  12     1   1.12       0.120      0.01000   
   2     1     1  13     1   1.13       0.130      0.01000   
   2     1     1  14     1   1.14       0.140      0.01000   
   2     1     1  15     1   1.15       0.150      0.01000   
   2     1     1  16     1   1.16       0.160      0.01000   
   2     1     1  17     1   1.17       0.170      0.01000   
   2     1     1  18     1   1.18       0.180      0.01000   
   2     1     1  19     1   1.19       0.190      0.01000   
   2     1     1  20     1   1.20       0.200      0.01000   
   2     1     1  21     1   1.21       0.210      0.01000   
   2     1     1  22     1   1.22       0.220      0.01000   
   2     1     1  23     1   1.23       0.230      0.01000   
   2     1     1  24     1   1.24       0.240      0.01000   
   2     1     1  25     1   1.25       0.250      0.01000   
   2     1     1  26     1   1.26       0.260      0.01000   
   2     1     1  27     1   1.27       0.270      0.01000   
   2     1     1  28     1   1.28       0.280      0.01000   
   2     1     1  29     1   1.29       0.290      0.01000   
   2     1     1  30     1   1.30       0.300      0.01000   
   2     1     1  31     1   1.31       0.310      0.01000   
   2     1     1  32     1   1.32       0.320      0.01000   
   2     1     1  33     1   1.33       0.330      0.01000   
   2     1     1  34     1   1.34       0.340      0.01000   
   2     1     1  35     1   1.35       0.350      0.01000   
   2     1     1  36     1   1.36       0.360      0.01000   
   2     1     1  37     1   1.37       0.370      0.01000   
   2     1     1  38     1   1.38       0.380      0.01000   
   2     1     1  39     1   1.39       0.390      0.01000   
   2     1     1  40     1   1.40       0.400      0.01000   
   2     1     1  41     1   1.41       0.410      0.01000   
   2     1     1  42     1   1.42       0.420      0.01000   
   2     1     1  43     1   1.43       0.430      0.01000   
   2     1     1  44     1   1.44       0.440      0.01000   
   2     1     1  45     1   1.45       0.450      0.01000   
   2     1     1  46     1   1.46       0.460      0.01000   
   2     1     1  47     1   1.47       0.470      0.01000   
   2     1     1  48     1   1.48       0.480      0.01000   
   2     1     1  49     1   1.49       0.490      0.01000   
   2     1     1  50     1   1.50       0.500      0.01000   
   2     1     1  51     1   1.51       0.510      0.01000   
   2     1     1  52     1   1.52       0.520      0.01000   
   2     1     1  53     1   1.53       0.530      0.01000   
   2     1     1  54     1   1.54       0.540      0.01000   
   2     1     1  55     1   1.55       0.550      0.01000   
   2     1     1  56     1   1.56       0.560      0.01000   
   2     1     1  57     1   1.57       0.570      0.01000   
   2     1     1  58     1   1.58       0.580      0.01000   
   2     1     1  59     1   1.59       0.590      0.01000   
   2     1     1  60     1   1.60       0.600      0.01000   
   2     1     1  61     1   1.61       0.610      0.01000   
   2     1     1  62     1   1.62       0.620      0.01000   
   2     1     1  63     1   1.63       0.630      0.01000   
   2     1     1  64     1   1.64       0.640      0.01000   
   2     1     1  65     1   1.65       0.650      0.01000   
   2     1     1  66     1   1.66       0.660      0.01000   
   2     1     1  67     1   1.67       0.670      0.01000   
   2     1     1  68     1   1.68       0.680      0.01000   
   2     1     1  69     1   1.69       0.690      0.01000   
   2     1     1  70     1   1.70       0.700      0.01000   
   2     1     1  71     1   1.71       0.710      0.01000   
   2     1     1  72     1   1.72       0.720      0.01000   
   2     1     1  73     1   1.73       0.730      0.01000   
   2     1     1  74     1   1.74       0.740      0.01000   
   2     1     1  75     1   1.75       0.750      0.01000   
   2     1     1  76     1   1.76       0.760      0.01000   
   2     1     1  77     1   1.77       0.770      0.01000   
   2     1     1  78     1   1.78       0.780      0.01000   
   2     1     1  79     1   1.79       0.790      0.01000   
   2     1     1  80     1   1.80       0.800      0.01000   
   2     1     1  81     1   1.81       0.810      0.01000   
   2     1     1  82     1   1.82       0.820      0.01000   
   2     1     1  83     1   1.83       0.830      0.01000   
   2     1     1  84     1   1.84       0.840      0.01000   
   2     1     1  85     1   1.85       0.850      0.01000   
   2     1     1  86     1   1.86       0.860      0.01000   
   2     1     1  87     1   1.87       0.870      0.01000   
   2     1     1  88     1   1.88       0.880      0.01000   
   2     1     1  89     1   1.89       0.890      0.01000   
   2     1     1  90     1   1.90       0.900      0.01000   
   2     1     1  91     1   1.91       0.910      0.01000   
   2     1     1  92     1   1.92       0.920      0.01000   
   2     1     1  93     1   1.93       0.930      0.01000   
   2     1     1  94     1   1.94       0.940      0.01000   
   2     1     1  95     1   1.95       0.950      0.01000   
   2     1     1  96     1   1.96       0.960      0.01000   
   2     1     1  97     1   1.97       0.970      0.01000   
   2     1     1  98     1   1.98       0.980      0.01000   
   2     1     1  99     1   1.99       0.990      0.01000   
   2     1     1 100     1   2.00       1.00       0.01000   
   2     1     2   1     1   1.01       0.0100     0.01000   
   2     1     2   2     1   1.02       0.0200     0.01000   
   2     1     2   3     1   1.03       0.0300     0.01000   
   2     1     2   4     1   1.04       0.0400     0.01000   
   2     1     2   5     1   1.05       0.0500     0.01000   
   2     1     2   6     1   1.06       0.0600     0.01000   
   2     1     2   7     1   1.07       0.0700     0.01000   
   2     1     2   8     1   1.08       0.0800     0.01000   
   2     1     2   9     1   1.09       0.0900     0.01000   
   2     1     2  10     1   1.10       0.100      0.01000   
   2     1     2  11     1   1.11       0.110      0.01000   
   2     1     2  12     1   1.12       0.120      0.01000   
   2     1     2  13     1   1.13       0.130      0.01000   
   2     1     2  14     1   1.14       0.140      0.01000   
   2     1     2  15     1   1.15       0.150      0.01000   
   2     1     2  16     1   1.16       0.160      0.01000   
   2     1     2  17     1   1.17       0.170      0.01000   
   2     1     2  18     1   1.18       0.180      0.01000   
   2     1     2  19     1   1.19       0.190      0.01000   
   2     1     2  20     1   1.20       0.200      0.01000   
   2     1     2  21     1   1.21       0.210      0.01000   
   2     1     2  22     1   1.22       0.220      0.01000   
   2     1     2  23     1   1.23       0.230      0.01000   
   2     1     2  24     1   1.24       0.240      0.01000   
   2     1     2  25     1   1.25       0.250      0.01000   
   2     1     2  26     1   1.26       0.260      0.01000   
   2     1     2  27     1   1.27       0.270      0.01000   
   2     1     2  28     1   1.28       0.280      0.01000   
   2     1     2  29     1   1.29       0.290      0.01000   
   2     1     2  30     1   1.30       0.300      0.01000   
   2     1     2  31     1   1.31       0.310      0.01000   
   2     1     2  32     1   1.32       0.320      0.01000   
   2     1     2  33     1   1.33       0.330      0.01000   
   2     1     2  34     1   1.34       0.340      0.01000   
   2     1     2  35     1   1.35       0.350      0.01000   
   2     1     2  36     1   1.36       0.360      0.01000   
   2     1     2  37     1   1.37       0.370      0.01000   
   2     1     2  38     1   1.38       0.380      0.01000   
   2     1     2  39     1   1.39       0.390      0.01000   
   2     1     2  40     1   1.40       0.400      0.01000   
   2     1     2  41     1   1.41       0.410      0.01000   
   2     1     2  42     1   1.42       0.420      0.01000   
   2     1     2  43     1   1.43       0.430      0.01000   
   2     1     2  44     1   1.44       0.440      0.01000   
   2     1     2  45     1   1.45       0.450      0.01000   
   2     1     2  46     1   1.46       0.460      0.01000   
   2     1     2  47     1   1.47       0.470      0.01000   
   2     1     2  48     1   1.48       0.480      0.01000   
   2     1     2  49     1   1.49       0.490      0.01000   
   2     1     2  50     1   1.50       0.500      0.01000   
   2     1     2  51     1   1.51       0.510      0.01000   
   2     1     2  52     1   1.52       0.520      0.01000   
   2     1     2  53     1   1.53       0.530      0.01000   
   2     1     2  54     1   1.54       0.540      0.01000   
   2     1     2  55     1   1.55       0.550      0.01000   
   2     1     2  56     1   1.56       0.560      0.01000   
   2     1     2  57     1   1.57       0.570      0.01000   
   2     1     2  58     1   1.58       0.580      0.01000   
   2     1     2  59     1   1.59       0.590      0.01000   
   2     1     2  60     1   1.60       0.600      0.01000   
   2     1     2  61     1   1.61       0.610      0.01000   
   2     1     2  62     1   1.62       0.620      0.01000   
   2     1     2  63     1   1.63       0.630      0.01000   
   2     1     2  64     1   1.64       0.640      0.01000   
   2     1     2  65     1   1.65       0.650      0.01000   
   2     1     2  66     1   1.66       0.660      0.01000   
   2     1     2  67     1   1.67       0.670      0.01000   
   2     1     2  68     1   1.68       0.680      0.01000   
   2     1     2  69     1   1.69       0.690      0.01000   
   2     1     2  70     1   1.70       0.700      0.01000   
   2     1     2  71     1   1.71       0.710      0.01000   
   2     1     2  72     1   1.72       0.720      0.01000   
   2     1     2  73     1   1.73       0.730      0.01000   
   2     1     2  74     1   1.74       0.740      0.01000   
   2     1     2  75     1   1.75       0.750      0.01000   
   2     1     2  76     1   1.76       0.760      0.01000   
   2     1     2  77     1   1.77       0.770      0.01000   
   2     1     2  78     1   1.78       0.780      0.01000   
   2     1     2  79     1   1.79       0.790      0.01000   
   2     1     2  80     1   1.80       0.800      0.01000   
   2     1     2  81     1   1.81       0.810      0.01000   
   2     1     2  82     1   1.82       0.820      0.01000   
   2     1     2  83     1   1.83       0.830      0.01000   
   2     1     2  84     1   1.84       0.840      0.01000   
   2     1     2  85     1   1.85       0.850      0.01000   
   2     1     2  86     1   1.86       0.860      0.01000   
   2     1     2  87     1   1.87       0.870      0.01000   
   2     1     2  88     1   1.88       0.880      0.01000   
   2     1     2  89     1   1.89       0.890      0.01000   
   2     1     2  90     1   1.90       0.900      0.01000   
   2     1     2  91     1   1.91       0.910      0.01000   
   2     1     2  92     1   1.92       0.920      0.01000   
   2     1     2  93     1   1.93       0.930      0.01000   
   2     1     2  94     1   1.94       0.940      0.01000   
   2     1     2  95     1   1.95       0.950      0.01000   
   2     1     2  96     1   1.96       0.960      0.01000   
   2     1     2  97     1   1.97       0.970      0.01000   
   2     1     2  98     1   1.98       0.980      0.01000   
   2     1     2  99     1   1.99       0.990      0.01000   
   2     1     2 100     1   2.00       1.00       0.01000   
   2     1     3   1     1   1.01       0.0100     0.01000   
   2     1     3   2     1   1.02       0.0200     0.01000   
   2     1     3   3     1   1.03       0.0300     0.01000   
   2     1     3   4     1   1.04       0.0400     0.01000   
   2     1     3   5     1   1.05       0.0500     0.01000   
   2     1     3   6     1   1.06       0.0600     0.01000   
   2     1     3   7     1   1.07       0.0700     0.01000   
   2     1     3   8     1   1.08       0.0800     0.01000   
   2     1     3   9     1   1.09       0.0900     0.01000   
   2     1     3  10     1   1.10       0.100      0.01000   
   2     1     3  11     1   1.11       0.110      0.01000   
   2     1     3  12     1   1.12       0.120      0.01000   
   2     1     3  13     1   1.13       0.130      0.01000   
   2     1     3  14     1   1.14       0.140      0.01000   
   2     1     3  15     1   1.15       0.150      0.01000   
   2     1     3  16     1   1.16       0.160      0.01000   
   2     1     3  17     1   1.17       0.170      0.01000   
   2     1     3  18     1   1.18       0.180      0.01000   
   2     1     3  19     1   1.19       0.190      0.01000   
   2     1     3  20     1   1.20       0.200      0.01000   
   2     1     3  21     1   1.21       0.210      0.01000   
   2     1     3  22     1   1.22       0.220      0.01000   
   2     1     3  23     1   1.23       0.230      0.01000   
   2     1     3  24     1   1.24       0.240      0.01000   
   2     1     3  25     1   1.25       0.250      0.01000   
   2     1     3  26     1   1.26       0.260      0.01000   
   2     1     3  27     1   1.27       0.270      0.01000   
   2     1     3  28     1   1.28       0.280      0.01000   
   2     1     3  29     1   1.29       0.290      0.01000   
   2     1     3  30     1   1.30       0.300      0.01000   
   2     1     3  31     1   1.31       0.310      0.01000   
   2     1     3  32     1   1.32       0.320      0.01000   
   2     1     3  33     1   1.33       0.330      0.01000   
   2     1     3  34     1   1.34       0.340      0.01000   
   2     1     3  35     1   1.35       0.350      0.01000   
   2     1     3  36     1   1.36       0.360      0.01000   
   2     1     3  37     1   1.37       0.370      0.01000   
   2     1     3  38     1   1.38       0.380      0.01000   
   2     1     3  39     1   1.39       0.390      0.01000   
   2     1     3  40     1   1.40       0.400      0.01000   
   2     1     3  41     1   1.41       0.410      0.01000   
   2     1     3  42     1   1.42       0.420      0.01000   
   2     1     3  43     1   1.43       0.430      0.01000   
   2     1     3  44     1   1.44       0.440      0.01000   
   2     1     3  45     1   1.45       0.450      0.01000   
   2     1     3  46     1   1.46       0.460      0.01000   
   2     1     3  47     1   1.47       0.470      0.01000   
   2     1     3  48     1   1.48       0.480      0.01000   
   2     1     3  49     1   1.49       0.490      0.01000   
   2     1     3  50     1   1.50       0.500      0.01000   
   2     1     3  51     1   1.51       0.510      0.01000   
   2     1     3  52     1   1.52       0.520      0.01000   
   2     1     3  53     1   1.53       0.530      0.01000   
   2     1     3  54     1   1.54       0.540      0.01000   
   2     1     3  55     1   1.55       0.550      0.01000   
   2     1     3  56     1   1.56       0.560      0.01000   
   2     1     3  57     1   1.57       0.570      0.01000   
   2     1     3  58     1   1.58       0.580      0.01000   
   2     1     3  59     1   1.59       0.590      0.01000   
   2     1     3  60     1   1.60       0.600      0.01000   
   2     1     3  61     1   1.61       0.610      0.01000   
   2     1     3  62     1   1.62       0.620      0.01000   
   2     1     3  63     1   1.63       0.630      0.01000   
   2     1     3  64     1   1.64       0.640      0.01000   
   2     1     3  65     1   1.65       0.650      0.01000   
   2     1     3  66     1   1.66       0.660      0.01000   
   2     1     3  67     1   1.67       0.670      0.01000   
   2     1     3  68     1   1.68       0.680      0.01000   
   2     1     3  69     1   1.69       0.690      0.01000   
   2     1     3  70     1   1.70       0.700      0.01000   
   2     1     3  71     1   1.71       0.710      0.01000   
   2     1     3  72     1   1.72       0.720      0.01000   
   2     1     3  73     1   1.73       0.730      0.01000   
   2     1     3  74     1   1.74       0.740      0.01000   
   2     1     3  75     1   1.75       0.750      0.01000   
   2     1     3  76     1   1.76       0.760      0.01000   
   2     1     3  77     1   1.77       0.770      0.01000   
   2     1     3  78     1   1.78       0.780      0.01000   
   2     1     3  79     1   1.79       0.790      0.01000   
   2     1     3  80     1   1.80       0.800      0.01000   
   2     1     3  81     1   1.81       0.810      0.01000   
   2     1     3  82     1   1.82       0.820      0.01000   
   2     1     3  83     1   1.83       0.830      0.01000   
   2     1     3  84     1   1.84       0.840      0.01000   
   2     1     3  85     1   1.85       0.850      0.01000   
   2     1     3  86     1   1.86       0.860      0.01000   
   2     1     3  87     1   1.87       0.870      0.01000   
   2     1     3  88     1   1.88       0.880      0.01000   
   2     1     3  89     1   1.89       0.890      0.01000   
   2     1     3  90     1   1.90       0.900      0.01000   
   2     1     3  91     1   1.91       0.910      0.01000   
   2     1     3  92     1   1.92       0.920      0.01000   
   2     1     3  93     1   1.93       0.930      0.01000   
   2     1     3  94     1   1.94       0.940      0.01000   
   2     1     3  95     1   1.95       0.950      0.01000   
   2     1     3  96     1   1.96       0.960      0.01000   
   2     1     3  97     1   1.97       0.970      0.01000   
   2     1     3  98     1   1.98       0.980      0.01000   
   2     1     3  99     1   1.99       0.990      0.01000   
   2     1     3 100     1   2.00       1.00       0.01000   
   2    10     1   1     1   10.0       9.01       0.01000   
   2    10     1   2     1   10.0       9.02       0.01000   
   2    10     1   3     1   10.0       9.03       0.01000   
   2    10     1   4     1   10.0       9.04       0.01000   
   2    10     1   5     1   10.1       9.05       0.01000   
   2    10     1   6     1   10.1       9.06       0.01000   
   2    10     1   7     1   10.1       9.07       0.01000   
   2    10     1   8     1   10.1       9.08       0.01000   
   2    10     1   9     1   10.1       9.09       0.01000   
   2    10     1  10     1   10.1       9.10       0.01000   
   2    10     1  11     1   10.1       9.11       0.01000   
   2    10     1  12     1   10.1       9.12       0.01000   
   2    10     1  13     1   10.1       9.13       0.01000   
   2    10     1  14     1   10.1       9.14       0.01000   
   2    10     1  15     1   10.2       9.15       0.01000   
   2    10     1  16     1   10.2       9.16       0.01000   
   2    10     1  17     1   10.2       9.17       0.01000   
   2    10     1  18     1   10.2       9.18       0.01000   
   2    10     1  19     1   10.2       9.19       0.01000   
   2    10     1  20     1   10.2       9.20       0.01000   
   2    10     1  21     1   10.2       9.21       0.01000   
   2    10     1  22     1   10.2       9.22       0.01000   
   2    10     1  23     1   10.2       9.23       0.01000   
   2    10     1  24     1   10.2       9.24       0.01000   
   2    10     1  25     1   10.2       9.25       0.01000   
   2    10     1  26     1   10.3       9.26       0.01000   
   2    10     1  27     1   10.3       9.27       0.01000   
   2    10     1  28     1   10.3       9.28       0.01000   
   2    10     1  29     1   10.3       9.29       0.01000   
   2    10     1  30     1   10.3       9.30       0.01000   
   2    10     1  31     1   10.3       9.31       0.01000   
   2    10     1  32     1   10.3       9.32       0.01000   
   2    10     1  33     1   10.3       9.33       0.01000   
   2    10     1  34     1   10.3       9.34       0.01000   
   2    10     1  35     1   10.3       9.35       0.01000   
   2    10     1  36     1   10.4       9.36       0.01000   
   2    10     1  37     1   10.4       9.37       0.01000   
   2    10     1  38     1   10.4       9.38       0.01000   
   2    10     1  39     1   10.4       9.39       0.01000   
   2    10     1  40     1   10.4       9.40       0.01000   
   2    10     1  41     1   10.4       9.41       0.01000   
   2    10     1  42     1   10.4       9.42       0.01000   
   2    10     1  43     1   10.4       9.43       0.01000   
   2    10     1  44     1   10.4       9.44       0.01000   
   2    10     1  45     1   10.5       9.45       0.01000   
   2    10     1  46     1   10.5       9.46       0.01000   
   2    10     1  47     1   10.5       9.47       0.01000   
   2    10     1  48     1   10.5       9.48       0.01000   
   2    10     1  49     1   10.5       9.49       0.01000   
   2    10     1  50     1   10.5       9.50       0.01000   
   2    10     1  51     1   10.5       9.51       0.01000   
   2    10     1  52     1   10.5       9.52       0.01000   
   2    10     1  53     1   10.5       9.53       0.01000   
   2    10     1  54     1   10.5       9.54       0.01000   
   2    10     1  55     1   10.6       9.55       0.01000   
   2    10     1  56     1   10.6       9.56       0.01000   
   2    10     1  57     1   10.6       9.57       0.01000   
   2    10     1  58     1   10.6       9.58       0.01000   
   2    10     1  59     1   10.6       9.59       0.01000   
   2    10     1  60     1   10.6       9.60       0.01000   
   2    10     1  61     1   10.6       9.61       0.01000   
   2    10     1  62     1   10.6       9.62       0.01000   
   2    10     1  63     1   10.6       9.63       0.01000   
   2    10     1  64     1   10.6       9.64       0.01000   
   2    10     1  65     1   10.7       9.65       0.01000   
   2    10     1  66     1   10.7       9.66       0.01000   
   2    10     1  67     1   10.7       9.67       0.01000   
   2    10     1  68     1   10.7       9.68       0.01000   
   2    10     1  69     1   10.7       9.69       0.01000   
   2    10     1  70     1   10.7       9.70       0.01000   
   2    10     1  71     1   10.7       9.71       0.01000   
   2    10     1  72     1   10.7       9.72       0.01000   
   2    10     1  73     1   10.7       9.73       0.01000   
   2    10     1  74     1   10.7       9.74       0.01000   
   2    10     1  75     1   10.8       9.75       0.01000   
   2    10     1  76     1   10.8       9.76       0.01000   
   2    10     1  77     1   10.8       9.77       0.01000   
   2    10     1  78     1   10.8       9.78       0.01000   
   2    10     1  79     1   10.8       9.79       0.01000   
   2    10     1  80     1   10.8       9.80       0.01000   
   2    10     1  81     1   10.8       9.81       0.01000   
   2    10     1  82     1   10.8       9.82       0.01000   
   2    10     1  83     1   10.8       9.83       0.01000   
   2    10     1  84     1   10.8       9.84       0.01000   
   2    10     1  85     1   10.9       9.85       0.01000   
   2    10     1  86     1   10.9       9.86       0.01000   
   2    10     1  87     1   10.9       9.87       0.01000   
   2    10     1  88     1   10.9       9.88       0.01000   
   2    10     1  89     1   10.9       9.89       0.01000   
   2    10     1  90     1   10.9       9.90       0.01000   
   2    10     1  91     1   10.9       9.91       0.01000   
   2    10     1  92     1   10.9       9.92       0.01000   
   2    10     1  93     1   10.9       9.93       0.01000   
   2    10     1  94     1   10.9       9.94       0.01000   
   2    10     1  95     1   11.0       9.95       0.01000   
   2    10     1  96     1   11.0       9.96       0.01000   
   2    10     1  97     1   11.0       9.97       0.01000   
   2    10     1  98     1   11.0       9.98       0.01000   
   2    10     1  99     1   11.0       9.99       0.01000   
   2    10     1 100     1   11.0       10.0       0.01000   
   2    10     2   1     1   10.0       9.01       0.01000   
   2    10     2   2     1   10.0       9.02       0.01000   
   2    10     2   3     1   10.0       9.03       0.01000   
   2    10     2   4     1   10.0       9.04       0.01000   
   2    10     2   5     1   10.1       9.05       0.01000   
   2    10     2   6     1   10.1       9.06       0.01000   
   2    10     2   7     1   10.1       9.07       0.01000   
   2    10     2   8     1   10.1       9.08       0.01000   
   2    10     2   9     1   10.1       9.09       0.01000   
   2    10     2  10     1   10.1       9.10       0.01000   
   2    10     2  11     1   10.1       9.11       0.01000   
   2    10     2  12     1   10.1       9.12       0.01000   
   2    10     2  13     1   10.1       9.13       0.01000   
   2    10     2  14     1   10.1       9.14       0.01000   
   2    10     2  15     1   10.2       9.15       0.01000   
   2    10     2  16     1   10.2       9.16       0.01000   
   2    10     2  17     1   10.2       9.17       0.01000   
   2    10     2  18     1   10.2       9.18       0.01000   
   2    10     2  19     1   10.2       9.19       0.01000   
   2    10     2  20     1   10.2       9.20       0.01000   
   2    10     2  21     1   10.2       9.21       0.01000   
   2    10     2  22     1   10.2       9.22       0.01000   
   2    10     2  23     1   10.2       9.23       0.01000   
   2    10     2  24     1   10.2       9.24       0.01000   
   2    10     2  25     1   10.2       9.25       0.01000   
   2    10     2  26     1   10.3       9.26       0.01000   
   2    10     2  27     1   10.3       9.27       0.01000   
   2    10     2  28     1   10.3       9.28       0.01000   
   2    10     2  29     1   10.3       9.29       0.01000   
   2    10     2  30     1   10.3       9.30       0.01000   
   2    10     2  31     1   10.3       9.31       0.01000   
   2    10     2  32     1   10.3       9.32       0.01000   
   2    10     2  33     1   10.3       9.33       0.01000   
   2    10     2  34     1   10.3       9.34       0.01000   
   2    10     2  35     1   10.3       9.35       0.01000   
   2    10     2  36     1   10.4       9.36       0.01000   
   2    10     2  37     1   10.4       9.37       0.01000   
   2    10     2  38     1   10.4       9.38       0.01000   
   2    10     2  39     1   10.4       9.39       0.01000   
   2    10     2  40     1   10.4       9.40       0.01000   
   2    10     2  41     1   10.4       9.41       0.01000   
   2    10     2  42     1   10.4       9.42       0.01000   
   2    10     2  43     1   10.4       9.43       0.01000   
   2    10     2  44     1   10.4       9.44       0.01000   
   2    10     2  45     1   10.5       9.45       0.01000   
   2    10     2  46     1   10.5       9.46       0.01000   
   2    10     2  47     1   10.5       9.47       0.01000   
   2    10     2  48     1   10.5       9.48       0.01000   
   2    10     2  49     1   10.5       9.49       0.01000   
   2    10     2  50     1   10.5       9.50       0.01000   
   2    10     2  51     1   10.5       9.51       0.01000   
   2    10     2  52     1   10.5       9.52       0.01000   
   2    10     2  53     1   10.5       9.53       0.01000   
   2    10     2  54     1   10.5       9.54       0.01000   
   2    10     2  55     1   10.6       9.55       0.01000   
   2    10     2  56     1   10.6       9.56       0.01000   
   2    10     2  57     1   10.6       9.57       0.01000   
   2    10     2  58     1   10.6       9.58       0.01000   
   2    10     2  59     1   10.6       9.59       0.01000   
   2    10     2  60     1   10.6       9.60       0.01000   
   2    10     2  61     1   10.6       9.61       0.01000   
   2    10     2  62     1   10.6       9.62       0.01000   
   2    10     2  63     1   10.6       9.63       0.01000   
   2    10     2  64     1   10.6       9.64       0.01000   
   2    10     2  65     1   10.7       9.65       0.01000   
   2    10     2  66     1   10.7       9.66       0.01000   
   2    10     2  67     1   10.7       9.67       0.01000   
   2    10     2  68     1   10.7       9.68       0.01000   
   2    10     2  69     1   10.7       9.69       0.01000   
   2    10     2  70     1   10.7       9.70       0.01000   
   2    10     2  71     1   10.7       9.71       0.01000   
   2    10     2  72     1   10.7       9.72       0.01000   
   2    10     2  73     1   10.7       9.73       0.01000   
   2    10     2  74     1   10.7       9.74       0.01000   
   2    10     2  75     1   10.8       9.75       0.01000   
   2    10     2  76     1   10.8       9.76       0.01000   
   2    10     2  77     1   10.8       9.77       0.01000   
   2    10     2  78     1   10.8       9.78       0.01000   
   2    10     2  79     1   10.8       9.79       0.01000   
   2    10     2  80     1   10.8       9.80       0.01000   
   2    10     2  81     1   10.8       9.81       0.01000   
   2    10     2  82     1   10.8       9.82       0.01000   
   2    10     2  83     1   10.8       9.83       0.01000   
   2    10     2  84     1   10.8       9.84       0.01000   
   2    10     2  85     1   10.9       9.85       0.01000   
   2    10     2  86     1   10.9       9.86       0.01000   
   2    10     2  87     1   10.9       9.87       0.01000   
   2    10     2  88     1   10.9       9.88       0.01000   
   2    10     2  89     1   10.9       9.89       0.01000   
   2    10     2  90     1   10.9       9.90       0.01000   
   2    10     2  91     1   10.9       9.91       0.01000   
   2    10     2  92     1   10.9       9.92       0.01000   
   2    10     2  93     1   10.9       9.93       0.01000   
   2    10     2  94     1   10.9       9.94       0.01000   
   2    10     2  95     1   11.0       9.95       0.01000   
   2    10     2  96     1   11.0       9.96       0.01000   
   2    10     2  97     1   11.0       9.97       0.01000   
   2    10     2  98     1   11.0       9.98       0.01000   
   2    10     2  99     1   11.0       9.99       0.01000   
   2    10     2 100     1   11.0       10.0       0.01000   
   2    10     3   1     1   10.0       9.01       0.01000   
   2    10     3   2     1   10.0       9.02       0.01000   
   2    10     3   3     1   10.0       9.03       0.01000   
   2    10     3   4     1   10.0       9.04       0.01000   
   2    10     3   5     1   10.1       9.05       0.01000   
   2    10     3   6     1   10.1       9.06       0.01000   
   2    10     3   7     1   10.1       9.07       0.01000   
   2    10     3   8     1   10.1       9.08       0.01000   
   2    10     3   9     1   10.1       9.09       0.01000   
   2    10     3  10     1   10.1       9.10       0.01000   
   2    10     3  11     1   10.1       9.11       0.01000   
   2    10     3  12     1   10.1       9.12       0.01000   
   2    10     3  13     1   10.1       9.13       0.01000   
   2    10     3  14     1   10.1       9.14       0.01000   
   2    10     3  15     1   10.2       9.15       0.01000   
   2    10     3  16     1   10.2       9.16       0.01000   
   2    10     3  17     1   10.2       9.17       0.01000   
   2    10     3  18     1   10.2       9.18       0.01000   
   2    10     3  19     1   10.2       9.19       0.01000   
   2    10     3  20     1   10.2       9.20       0.01000   
   2    10     3  21     1   10.2       9.21       0.01000   
   2    10     3  22     1   10.2       9.22       0.01000   
   2    10     3  23     1   10.2       9.23       0.01000   
   2    10     3  24     1   10.2       9.24       0.01000   
   2    10     3  25     1   10.2       9.25       0.01000   
   2    10     3  26     1   10.3       9.26       0.01000   
   2    10     3  27     1   10.3       9.27       0.01000   
   2    10     3  28     1   10.3       9.28       0.01000   
   2    10     3  29     1   10.3       9.29       0.01000   
   2    10     3  30     1   10.3       9.30       0.01000   
   2    10     3  31     1   10.3       9.31       0.01000   
   2    10     3  32     1   10.3       9.32       0.01000   
   2    10     3  33     1   10.3       9.33       0.01000   
   2    10     3  34     1   10.3       9.34       0.01000   
   2    10     3  35     1   10.3       9.35       0.01000   
   2    10     3  36     1   10.4       9.36       0.01000   
   2    10     3  37     1   10.4       9.37       0.01000   
   2    10     3  38     1   10.4       9.38       0.01000   
   2    10     3  39     1   10.4       9.39       0.01000   
   2    10     3  40     1   10.4       9.40       0.01000   
   2    10     3  41     1   10.4       9.41       0.01000   
   2    10     3  42     1   10.4       9.42       0.01000   
   2    10     3  43     1   10.4       9.43       0.01000   
   2    10     3  44     1   10.4       9.44       0.01000   
   2    10     3  45     1   10.5       9.45       0.01000   
   2    10     3  46     1   10.5       9.46       0.01000   
   2    10     3  47     1   10.5       9.47       0.01000   
   2    10     3  48     1   10.5       9.48       0.01000   
   2    10     3  49     1   10.5       9.49       0.01000   
   2    10     3  50     1   10.5       9.50       0.01000   
   2    10     3  51     1   10.5       9.51       0.01000   
   2    10     3  52     1   10.5       9.52       0.01000   
   2    10     3  53     1   10.5       9.53       0.01000   
   2    10     3  54     1   10.5       9.54       0.01000   
   2    10     3  55     1   10.6       9.55       0.01000   
   2    10     3  56     1   10.6       9.56       0.01000   
   2    10     3  57     1   10.6       9.57       0.01000   
   2    10     3  58     1   10.6       9.58       0.01000   
   2    10     3  59     1   10.6       9.59       0.01000   
   2    10     3  60     1   10.6       9.60       0.01000   
   2    10     3  61     1   10.6       9.61       0.01000   
   2    10     3  62     1   10.6       9.62       0.01000   
   2    10     3  63     1   10.6       9.63       0.01000   
   2    10     3  64     1   10.6       9.64       0.01000   
   2    10     3  65     1   10.7       9.65       0.01000   
   2    10     3  66     1   10.7       9.66       0.01000   
   2    10     3  67     1   10.7       9.67       0.01000   
   2    10     3  68     1   10.7       9.68       0.01000   
   2    10     3  69     1   10.7       9.69       0.01000   
   2    10     3  70     1   10.7       9.70       0.01000   
   2    10     3  71     1   10.7       9.71       0.01000   
   2    10     3  72     1   10.7       9.72       0.01000   
   2    10     3  73     1   10.7       9.73       0.01000   
   2    10     3  74     1   10.7       9.74       0.01000   
   2    10     3  75     1   10.8       9.75       0.01000   
   2    10     3  76     1   10.8       9.76       0.01000   
   2    10     3  77     1   10.8       9.77       0.01000   
   2    10     3  78     1   10.8       9.78       0.01000   
   2    10     3  79     1   10.8       9.79       0.01000   
   2    10     3  80     1   10.8       9.80       0.01000   
   2    10     3  81     1   10.8       9.81       0.01000   
   2    10     3  82     1   10.8       9.82       0.01000   
   2    10     3  83     1   10.8       9.83       0.01000   
   2    10     3  84     1   10.8       9.84       0.01000   
   2    10     3  85     1   10.9       9.85       0.01000   
   2    10     3  86     1   10.9       9.86       0.01000   
   2    10     3  87     1   10.9       9.87       0.01000   
   2    10     3  88     1   10.9       9.88       0.01000   
   2    10     3  89     1   10.9       9.89       0.01000   
   2    10     3  90     1   10.9       9.90       0.01000   
   2    10     3  91     1   10.9       9.91       0.01000   
   2    10     3  92     1   10.9       9.92       0.01000   
   2    10     3  93     1   10.9       9.93       0.01000   
   2    10     3  94     1   10.9       9.94       0.01000   
   2    10     3  95     1   11.0       9.95       0.01000   
   2    10     3  96     1   11.0       9.96       0.01000   
   2    10     3  97     1   11.0       9.97       0.01000   
   2    10     3  98     1   11.0       9.98       0.01000   
   2    10     3  99     1   11.0       9.99       0.01000   
   2    10     3 100     1   11.0       10.0       0.01000   
   2    18     1   1     1   18.0       17.0       0.01000   
   2    18     1   2     1   18.0       17.0       0.01000   
   2    18     1   3     1   18.0       17.0       0.01000   
   2    18     1   4     1   18.0       17.0       0.01000   
   2    18     1   5     1   18.1       17.1       0.01000   
   2    18     1   6     1   18.1       17.1       0.01000   
   2    18     1   7     1   18.1       17.1       0.01000   
   2    18     1   8     1   18.1       17.1       0.01000   
   2    18     1   9     1   18.1       17.1       0.01000   
   2    18     1  10     1   18.1       17.1       0.01000   
   2    18     1  11     1   18.1       17.1       0.01000   
   2    18     1  12     1   18.1       17.1       0.01000   
   2    18     1  13     1   18.1       17.1       0.01000   
   2    18     1  14     1   18.1       17.1       0.01000   
   2    18     1  15     1   18.1       17.1       0.01000   
   2    18     1  16     1   18.2       17.2       0.01000   
   2    18     1  17     1   18.2       17.2       0.01000   
   2    18     1  18     1   18.2       17.2       0.01000   
   2    18     1  19     1   18.2       17.2       0.01000   
   2    18     1  20     1   18.2       17.2       0.01000   
   2    18     1  21     1   18.2       17.2       0.01000   
   2    18     1  22     1   18.2       17.2       0.01000   
   2    18     1  23     1   18.2       17.2       0.01000   
   2    18     1  24     1   18.2       17.2       0.01000   
   2    18     1  25     1   18.2       17.2       0.01000   
   2    18     1  26     1   18.3       17.3       0.01000   
   2    18     1  27     1   18.3       17.3       0.01000   
   2    18     1  28     1   18.3       17.3       0.01000   
   2    18     1  29     1   18.3       17.3       0.01000   
   2    18     1  30     1   18.3       17.3       0.01000   
   2    18     1  31     1   18.3       17.3       0.01000   
   2    18     1  32     1   18.3       17.3       0.01000   
   2    18     1  33     1   18.3       17.3       0.01000   
   2    18     1  34     1   18.3       17.3       0.01000   
   2    18     1  35     1   18.4       17.4       0.01000   
   2    18     1  36     1   18.4       17.4       0.01000   
   2    18     1  37     1   18.4       17.4       0.01000   
   2    18     1  38     1   18.4       17.4       0.01000   
   2    18     1  39     1   18.4       17.4       0.01000   
   2    18     1  40     1   18.4       17.4       0.01000   
   2    18     1  41     1   18.4       17.4       0.01000   
   2    18     1  42     1   18.4       17.4       0.01000   
   2    18     1  43     1   18.4       17.4       0.01000   
   2    18     1  44     1   18.4       17.4       0.01000   
   2    18     1  45     1   18.4       17.4       0.01000   
   2    18     1  46     1   18.5       17.5       0.01000   
   2    18     1  47     1   18.5       17.5       0.01000   
   2    18     1  48     1   18.5       17.5       0.01000   
   2    18     1  49     1   18.5       17.5       0.01000   
   2    18     1  50     1   18.5       17.5       0.01000   
   2    18     1  51     1   18.5       17.5       0.01000   
   2    18     1  52     1   18.5       17.5       0.01000   
   2    18     1  53     1   18.5       17.5       0.01000   
   2    18     1  54     1   18.5       17.5       0.01000   
   2    18     1  55     1   18.6       17.6       0.01000   
   2    18     1  56     1   18.6       17.6       0.01000   
   2    18     1  57     1   18.6       17.6       0.01000   
   2    18     1  58     1   18.6       17.6       0.01000   
   2    18     1  59     1   18.6       17.6       0.01000   
   2    18     1  60     1   18.6       17.6       0.01000   
   2    18     1  61     1   18.6       17.6       0.01000   
   2    18     1  62     1   18.6       17.6       0.01000   
   2    18     1  63     1   18.6       17.6       0.01000   
   2    18     1  64     1   18.6       17.6       0.01000   
   2    18     1  65     1   18.7       17.6       0.01000   
   2    18     1  66     1   18.7       17.7       0.01000   
   2    18     1  67     1   18.7       17.7       0.01000   
   2    18     1  68     1   18.7       17.7       0.01000   
   2    18     1  69     1   18.7       17.7       0.01000   
   2    18     1  70     1   18.7       17.7       0.01000   
   2    18     1  71     1   18.7       17.7       0.01000   
   2    18     1  72     1   18.7       17.7       0.01000   
   2    18     1  73     1   18.7       17.7       0.01000   
   2    18     1  74     1   18.7       17.7       0.01000   
   2    18     1  75     1   18.8       17.8       0.01000   
   2    18     1  76     1   18.8       17.8       0.01000   
   2    18     1  77     1   18.8       17.8       0.01000   
   2    18     1  78     1   18.8       17.8       0.01000   
   2    18     1  79     1   18.8       17.8       0.01000   
   2    18     1  80     1   18.8       17.8       0.01000   
   2    18     1  81     1   18.8       17.8       0.01000   
   2    18     1  82     1   18.8       17.8       0.01000   
   2    18     1  83     1   18.8       17.8       0.01000   
   2    18     1  84     1   18.8       17.8       0.01000   
   2    18     1  85     1   18.9       17.9       0.01000   
   2    18     1  86     1   18.9       17.9       0.01000   
   2    18     1  87     1   18.9       17.9       0.01000   
   2    18     1  88     1   18.9       17.9       0.01000   
   2    18     1  89     1   18.9       17.9       0.01000   
   2    18     1  90     1   18.9       17.9       0.01000   
   2    18     1  91     1   18.9       17.9       0.01000   
   2    18     1  92     1   18.9       17.9       0.01000   
   2    18     1  93     1   18.9       17.9       0.01000   
   2    18     1  94     1   18.9       17.9       0.01000   
   2    18     1  95     1   18.9       17.9       0.01000   
   2    18     1  96     1   19.0       18.0       0.01000   
   2    18     1  97     1   19.0       18.0       0.01000   
   2    18     1  98     1   19.0       18.0       0.01000   
   2    18     1  99     1   19.0       18.0       0.01000   
   2    18     1 100     1   19.0       18.0       0.01000   
   2    18     2   1     1   18.0       17.0       0.01000   
   2    18     2   2     1   18.0       17.0       0.01000   
   2    18     2   3     1   18.0       17.0       0.01000   
   2    18     2   4     1   18.0       17.0       0.01000   
   2    18     2   5     1   18.1       17.1       0.01000   
   2    18     2   6     1   18.1       17.1       0.01000   
   2    18     2   7     1   18.1       17.1       0.01000   
   2    18     2   8     1   18.1       17.1       0.01000   
   2    18     2   9     1   18.1       17.1       0.01000   
   2    18     2  10     1   18.1       17.1       0.01000   
   2    18     2  11     1   18.1       17.1       0.01000   
   2    18     2  12     1   18.1       17.1       0.01000   
   2    18     2  13     1   18.1       17.1       0.01000   
   2    18     2  14     1   18.1       17.1       0.01000   
   2    18     2  15     1   18.1       17.1       0.01000   
   2    18     2  16     1   18.2       17.2       0.01000   
   2    18     2  17     1   18.2       17.2       0.01000   
   2    18     2  18     1   18.2       17.2       0.01000   
   2    18     2  19     1   18.2       17.2       0.01000   
   2    18     2  20     1   18.2       17.2       0.01000   
   2    18     2  21     1   18.2       17.2       0.01000   
   2    18     2  22     1   18.2       17.2       0.01000   
   2    18     2  23     1   18.2       17.2       0.01000   
   2    18     2  24     1   18.2       17.2       0.01000   
   2    18     2  25     1   18.2       17.2       0.01000   
   2    18     2  26     1   18.3       17.3       0.01000   
   2    18     2  27     1   18.3       17.3       0.01000   
   2    18     2  28     1   18.3       17.3       0.01000   
   2    18     2  29     1   18.3       17.3       0.01000   
   2    18     2  30     1   18.3       17.3       0.01000   
   2    18     2  31     1   18.3       17.3       0.01000   
   2    18     2  32     1   18.3       17.3       0.01000   
   2    18     2  33     1   18.3       17.3       0.01000   
   2    18     2  34     1   18.3       17.3       0.01000   
   2    18     2  35     1   18.4       17.4       0.01000   
   2    18     2  36     1   18.4       17.4       0.01000   
   2    18     2  37     1   18.4       17.4       0.01000   
   2    18     2  38     1   18.4       17.4       0.01000   
   2    18     2  39     1   18.4       17.4       0.01000   
   2    18     2  40     1   18.4       17.4       0.01000   
   2    18     2  41     1   18.4       17.4       0.01000   
   2    18     2  42     1   18.4       17.4       0.01000   
   2    18     2  43     1   18.4       17.4       0.01000   
   2    18     2  44     1   18.4       17.4       0.01000   
   2    18     2  45     1   18.4       17.4       0.01000   
   2    18     2  46     1   18.5       17.5       0.01000   
   2    18     2  47     1   18.5       17.5       0.01000   
   2    18     2  48     1   18.5       17.5       0.01000   
   2    18     2  49     1   18.5       17.5       0.01000   
   2    18     2  50     1   18.5       17.5       0.01000   
   2    18     2  51     1   18.5       17.5       0.01000   
   2    18     2  52     1   18.5       17.5       0.01000   
   2    18     2  53     1   18.5       17.5       0.01000   
   2    18     2  54     1   18.5       17.5       0.01000   
   2    18     2  55     1   18.6       17.6       0.01000   
   2    18     2  56     1   18.6       17.6       0.01000   
   2    18     2  57     1   18.6       17.6       0.01000   
   2    18     2  58     1   18.6       17.6       0.01000   
   2    18     2  59     1   18.6       17.6       0.01000   
   2    18     2  60     1   18.6       17.6       0.01000   
   2    18     2  61     1   18.6       17.6       0.01000   
   2    18     2  62     1   18.6       17.6       0.01000   
   2    18     2  63     1   18.6       17.6       0.01000   
   2    18     2  64     1   18.6       17.6       0.01000   
   2    18     2  65     1   18.7       17.6       0.01000   
   2    18     2  66     1   18.7       17.7       0.01000   
   2    18     2  67     1   18.7       17.7       0.01000   
   2    18     2  68     1   18.7       17.7       0.01000   
   2    18     2  69     1   18.7       17.7       0.01000   
   2    18     2  70     1   18.7       17.7       0.01000   
   2    18     2  71     1   18.7       17.7       0.01000   
   2    18     2  72     1   18.7       17.7       0.01000   
   2    18     2  73     1   18.7       17.7       0.01000   
   2    18     2  74     1   18.7       17.7       0.01000   
   2    18     2  75     1   18.8       17.8       0.01000   
   2    18     2  76     1   18.8       17.8       0.01000   
   2    18     2  77     1   18.8       17.8       0.01000   
   2    18     2  78     1   18.8       17.8       0.01000   
   2    18     2  79     1   18.8       17.8       0.01000   
   2    18     2  80     1   18.8       17.8       0.01000   
   2    18     2  81     1   18.8       17.8       0.01000   
   2    18     2  82     1   18.8       17.8       0.01000   
   2    18     2  83     1   18.8       17.8       0.01000   
   2    18     2  84     1   18.8       17.8       0.01000   
   2    18     2  85     1   18.9       17.9       0.01000   
   2    18     2  86     1   18.9       17.9       0.01000   
   2    18     2  87     1   18.9       17.9       0.01000   
   2    18     2  88     1   18.9       17.9       0.01000   
   2    18     2  89     1   18.9       17.9       0.01000   
   2    18     2  90     1   18.9       17.9       0.01000   
   2    18     2  91     1   18.9       17.9       0.01000   
   2    18     2  92     1   18.9       17.9       0.01000   
   2    18     2  93     1   18.9       17.9       0.01000   
   2    18     2  94     1   18.9       17.9       0.01000   
   2    18     2  95     1   18.9       17.9       0.01000   
   2    18     2  96     1   19.0       18.0       0.01000   
   2    18     2  97     1   19.0       18.0       0.01000   
   2    18     2  98     1   19.0       18.0       0.01000   
   2    18     2  99     1   19.0       18.0       0.01000   
   2    18     2 100     1   19.0       18.0       0.01000   
   2    18     3   1     1   18.0       17.0       0.01000   
   2    18     3   2     1   18.0       17.0       0.01000   
   2    18     3   3     1   18.0       17.0       0.01000   
   2    18     3   4     1   18.0       17.0       0.01000   
   2    18     3   5     1   18.1       17.1       0.01000   
   2    18     3   6     1   18.1       17.1       0.01000   
   2    18     3   7     1   18.1       17.1       0.01000   
   2    18     3   8     1   18.1       17.1       0.01000   
   2    18     3   9     1   18.1       17.1       0.01000   
   2    18     3  10     1   18.1       17.1       0.01000   
   2    18     3  11     1   18.1       17.1       0.01000   
   2    18     3  12     1   18.1       17.1       0.01000   
   2    18     3  13     1   18.1       17.1       0.01000   
   2    18     3  14     1   18.1       17.1       0.01000   
   2    18     3  15     1   18.1       17.1       0.01000   
   2    18     3  16     1   18.2       17.2       0.01000   
   2    18     3  17     1   18.2       17.2       0.01000   
   2    18     3  18     1   18.2       17.2       0.01000   
   2    18     3  19     1   18.2       17.2       0.01000   
   2    18     3  20     1   18.2       17.2       0.01000   
   2    18     3  21     1   18.2       17.2       0.01000   
   2    18     3  22     1   18.2       17.2       0.01000   
   2    18     3  23     1   18.2       17.2       0.01000   
   2    18     3  24     1   18.2       17.2       0.01000   
   2    18     3  25     1   18.2       17.2       0.01000   
   2    18     3  26     1   18.3       17.3       0.01000   
   2    18     3  27     1   18.3       17.3       0.01000   
   2    18     3  28     1   18.3       17.3       0.01000   
   2    18     3  29     1   18.3       17.3       0.01000   
   2    18     3  30     1   18.3       17.3       0.01000   
   2    18     3  31     1   18.3       17.3       0.01000   
   2    18     3  32     1   18.3       17.3       0.01000   
   2    18     3  33     1   18.3       17.3       0.01000   
   2    18     3  34     1   18.3       17.3       0.01000   
   2    18     3  35     1   18.4       17.4       0.01000   
   2    18     3  36     1   18.4       17.4       0.01000   
   2    18     3  37     1   18.4       17.4       0.01000   
   2    18     3  38     1   18.4       17.4       0.01000   
   2    18     3  39     1   18.4       17.4       0.01000   
   2    18     3  40     1   18.4       17.4       0.01000   
   2    18     3  41     1   18.4       17.4       0.01000   
   2    18     3  42     1   18.4       17.4       0.01000   
   2    18     3  43     1   18.4       17.4       0.01000   
   2    18     3  44     1   18.4       17.4       0.01000   
   2    18     3  45     1   18.4       17.4       0.01000   
   2    18     3  46     1   18.5       17.5       0.01000   
   2    18     3  47     1   18.5       17.5       0.01000   
   2    18     3  48     1   18.5       17.5       0.01000   
   2    18     3  49     1   18.5       17.5       0.01000   
   2    18     3  50     1   18.5       17.5       0.01000   
   2    18     3  51     1   18.5       17.5       0.01000   
   2    18     3  52     1   18.5       17.5       0.01000   
   2    18     3  53     1   18.5       17.5       0.01000   
   2    18     3  54     1   18.5       17.5       0.01000   
   2    18     3  55     1   18.6       17.6       0.01000   
   2    18     3  56     1   18.6       17.6       0.01000   
   2    18     3  57     1   18.6       17.6       0.01000   
   2    18     3  58     1   18.6       17.6       0.01000   
   2    18     3  59     1   18.6       17.6       0.01000   
   2    18     3  60     1   18.6       17.6       0.01000   
   2    18     3  61     1   18.6       17.6       0.01000   
   2    18     3  62     1   18.6       17.6       0.01000   
   2    18     3  63     1   18.6       17.6       0.01000   
   2    18     3  64     1   18.6       17.6       0.01000   
   2    18     3  65     1   18.7       17.6       0.01000   
   2    18     3  66     1   18.7       17.7       0.01000   
   2    18     3  67     1   18.7       17.7       0.01000   
   2    18     3  68     1   18.7       17.7       0.01000   
   2    18     3  69     1   18.7       17.7       0.01000   
   2    18     3  70     1   18.7       17.7       0.01000   
   2    18     3  71     1   18.7       17.7       0.01000   
   2    18     3  72     1   18.7       17.7       0.01000   
   2    18     3  73     1   18.7       17.7       0.01000   
   2    18     3  74     1   18.7       17.7       0.01000   
   2    18     3  75     1   18.8       17.8       0.01000   
   2    18     3  76     1   18.8       17.8       0.01000   
   2    18     3  77     1   18.8       17.8       0.01000   
   2    18     3  78     1   18.8       17.8       0.01000   
   2    18     3  79     1   18.8       17.8       0.01000   
   2    18     3  80     1   18.8       17.8       0.01000   
   2    18     3  81     1   18.8       17.8       0.01000   
   2    18     3  82     1   18.8       17.8       0.01000   
   2    18     3  83     1   18.8       17.8       0.01000   
   2    18     3  84     1   18.8       17.8       0.01000   
   2    18     3  85     1   18.9       17.9       0.01000   
   2    18     3  86     1   18.9       17.9       0.01000   
   2    18     3  87     1   18.9       17.9       0.01000   
   2    18     3  88     1   18.9       17.9       0.01000   
   2    18     3  89     1   18.9       17.9       0.01000   
   2    18     3  90     1   18.9       17.9       0.01000   
   2    18     3  91     1   18.9       17.9       0.01000   
   2    18     3  92     1   18.9       17.9       0.01000   
   2    18     3  93     1   18.9       17.9       0.01000   
   2    18     3  94     1   18.9       17.9       0.01000   
   2    18     3  95     1   18.9       17.9       0.01000   
   2    18     3  96     1   19.0       18.0       0.01000   
   2    18     3  97     1   19.0       18.0       0.01000   
   2    18     3  98     1   19.0       18.0       0.01000   
   2    18     3  99     1   19.0       18.0       0.01000   
   2    18     3 100     1   19.0       18.0       0.01000   
   2    18     4   1     1   18.0       17.0       0.01000   
   2    18     4   2     1   18.0       17.0       0.01000   
   2    18     4   3     1   18.0       17.0       0.01000   
   2    18     4   4     1   18.0       17.0       0.01000   
   2    18     4   5     1   18.1       17.1       0.01000   
   2    18     4   6     1   18.1       17.1       0.01000   
   2    18     4   7     1   18.1       17.1       0.01000   
   2    18     4   8     1   18.1       17.1       0.01000   
   2    18     4   9     1   18.1       17.1       0.01000   
   2    18     4  10     1   18.1       17.1       0.01000   
   2    18     4  11     1   18.1       17.1       0.01000   
   2    18     4  12     1   18.1       17.1       0.01000   
   2    18     4  13     1   18.1       17.1       0.01000   
   2    18     4  14     1   18.1       17.1       0.01000   
   2    18     4  15     1   18.1       17.1       0.01000   
   2    18     4  16     1   18.2       17.2       0.01000   
   2    18     4  17     1   18.2       17.2       0.01000   
   2    18     4  18     1   18.2       17.2       0.01000   
   2    18     4  19     1   18.2       17.2       0.01000   
   2    18     4  20     1   18.2       17.2       0.01000   
   2    18     4  21     1   18.2       17.2       0.01000   
   2    18     4  22     1   18.2       17.2       0.01000   
   2    18     4  23     1   18.2       17.2       0.01000   
   2    18     4  24     1   18.2       17.2       0.01000   
   2    18     4  25     1   18.2       17.2       0.01000   
   2    18     4  26     1   18.3       17.3       0.01000   
   2    18     4  27     1   18.3       17.3       0.01000   
   2    18     4  28     1   18.3       17.3       0.01000   
   2    18     4  29     1   18.3       17.3       0.01000   
   2    18     4  30     1   18.3       17.3       0.01000   
   2    18     4  31     1   18.3       17.3       0.01000   
   2    18     4  32     1   18.3       17.3       0.01000   
   2    18     4  33     1   18.3       17.3       0.01000   
   2    18     4  34     1   18.3       17.3       0.01000   
   2    18     4  35     1   18.4       17.4       0.01000   
   2    18     4  36     1   18.4       17.4       0.01000   
   2    18     4  37     1   18.4       17.4       0.01000   
   2    18     4  38     1   18.4       17.4       0.01000   
   2    18     4  39     1   18.4       17.4       0.01000   
   2    18     4  40     1   18.4       17.4       0.01000   
   2    18     4  41     1   18.4       17.4       0.01000   
   2    18     4  42     1   18.4       17.4       0.01000   
   2    18     4  43     1   18.4       17.4       0.01000   
   2    18     4  44     1   18.4       17.4       0.01000   
   2    18     4  45     1   18.4       17.4       0.01000   
   2    18     4  46     1   18.5       17.5       0.01000   
   2    18     4  47     1   18.5       17.5       0.01000   
   2    18     4  48     1   18.5       17.5       0.01000   
   2    18     4  49     1   18.5       17.5       0.01000   
   2    18     4  50     1   18.5       17.5       0.01000   
   2    18     4  51     1   18.5       17.5       0.01000   
   2    18     4  52     1   18.5       17.5       0.01000   
   2    18     4  53     1   18.5       17.5       0.01000   
   2    18     4  54     1   18.5       17.5       0.01000   
   2    18     4  55     1   18.6       17.6       0.01000   
   2    18     4  56     1   18.6       17.6       0.01000   
   2    18     4  57     1   18.6       17.6       0.01000   
   2    18     4  58     1   18.6       17.6       0.01000   
   2    18     4  59     1   18.6       17.6       0.01000   
   2    18     4  60     1   18.6       17.6       0.01000   
   2    18     4  61     1   18.6       17.6       0.01000   
   2    18     4  62     1   18.6       17.6       0.01000   
   2    18     4  63     1   18.6       17.6       0.01000   
   2    18     4  64     1   18.6       17.6       0.01000   
   2    18     4  65     1   18.7       17.6       0.01000   
   2    18     4  66     1   18.7       17.7       0.01000   
   2    18     4  67     1   18.7       17.7       0.01000   
   2    18     4  68     1   18.7       17.7       0.01000   
   2    18     4  69     1   18.7       17.7       0.01000   
   2    18     4  70     1   18.7       17.7       0.01000   
   2    18     4  71     1   18.7       17.7       0.01000   
   2    18     4  72     1   18.7       17.7       0.01000   
   2    18     4  73     1   18.7       17.7       0.01000   
   2    18     4  74     1   18.7       17.7       0.01000   
   2    18     4  75     1   18.8       17.8       0.01000   
   2    18     4  76     1   18.8       17.8       0.01000   
   2    18     4  77     1   18.8       17.8       0.01000   
   2    18     4  78     1   18.8       17.8       0.01000   
   2    18     4  79     1   18.8       17.8       0.01000   
   2    18     4  80     1   18.8       17.8       0.01000   
   2    18     4  81     1   18.8       17.8       0.01000   
   2    18     4  82     1   18.8       17.8       0.01000   
   2    18     4  83     1   18.8       17.8       0.01000   
   2    18     4  84     1   18.8       17.8       0.01000   
   2    18     4  85     1   18.9       17.9       0.01000   
   2    18     4  86     1   18.9       17.9       0.01000   
   2    18     4  87     1   18.9       17.9       0.01000   
   2    18     4  88     1   18.9       17.9       0.01000   
   2    18     4  89     1   18.9       17.9       0.01000   
   2    18     4  90     1   18.9       17.9       0.01000   
   2    18     4  91     1   18.9       17.9       0.01000   
   2    18     4  92     1   18.9       17.9       0.01000   
   2    18     4  93     1   18.9       17.9       0.01000   
   2    18     4  94     1   18.9       17.9       0.01000   
   2    18     4  95     1   18.9       17.9       0.01000   
   2    18     4  96     1   19.0       18.0       0.01000   
   2    18     4  97     1   19.0       18.0       0.01000   
   2    18     4  98     1   19.0       18.0       0.01000   
   2    18     4  99     1   19.0       18.0       0.01000   
   2    18     4 100     1   19.0       18.0       0.01000   
   2    25     1   1     1   25.0       24.0       0.01000   
   2    25     1   2     1   25.0       24.0       0.01000   
   2    25     1   3     1   25.0       24.0       0.01000   
   2    25     1   4     1   25.0       24.0       0.01000   
   2    25     1   5     1   25.1       24.1       0.01000   
   2    25     1   6     1   25.1       24.1       0.01000   
   2    25     1   7     1   25.1       24.1       0.01000   
   2    25     1   8     1   25.1       24.1       0.01000   
   2    25     1   9     1   25.1       24.1       0.01000   
   2    25     1  10     1   25.1       24.1       0.01000   
   2    25     1  11     1   25.1       24.1       0.01000   
   2    25     1  12     1   25.1       24.1       0.01000   
   2    25     1  13     1   25.1       24.1       0.01000   
   2    25     1  14     1   25.1       24.1       0.01000   
   2    25     1  15     1   25.1       24.1       0.01000   
   2    25     1  16     1   25.2       24.2       0.01000   
   2    25     1  17     1   25.2       24.2       0.01000   
   2    25     1  18     1   25.2       24.2       0.01000   
   2    25     1  19     1   25.2       24.2       0.01000   
   2    25     1  20     1   25.2       24.2       0.01000   
   2    25     1  21     1   25.2       24.2       0.01000   
   2    25     1  22     1   25.2       24.2       0.01000   
   2    25     1  23     1   25.2       24.2       0.01000   
   2    25     1  24     1   25.2       24.2       0.01000   
   2    25     1  25     1   25.2       24.2       0.01000   
   2    25     1  26     1   25.3       24.3       0.01000   
   2    25     1  27     1   25.3       24.3       0.01000   
   2    25     1  28     1   25.3       24.3       0.01000   
   2    25     1  29     1   25.3       24.3       0.01000   
   2    25     1  30     1   25.3       24.3       0.01000   
   2    25     1  31     1   25.3       24.3       0.01000   
   2    25     1  32     1   25.3       24.3       0.01000   
   2    25     1  33     1   25.3       24.3       0.01000   
   2    25     1  34     1   25.3       24.3       0.01000   
   2    25     1  35     1   25.4       24.4       0.01000   
   2    25     1  36     1   25.4       24.4       0.01000   
   2    25     1  37     1   25.4       24.4       0.01000   
   2    25     1  38     1   25.4       24.4       0.01000   
   2    25     1  39     1   25.4       24.4       0.01000   
   2    25     1  40     1   25.4       24.4       0.01000   
   2    25     1  41     1   25.4       24.4       0.01000   
   2    25     1  42     1   25.4       24.4       0.01000   
   2    25     1  43     1   25.4       24.4       0.01000   
   2    25     1  44     1   25.4       24.4       0.01000   
   2    25     1  45     1   25.4       24.4       0.01000   
   2    25     1  46     1   25.5       24.5       0.01000   
   2    25     1  47     1   25.5       24.5       0.01000   
   2    25     1  48     1   25.5       24.5       0.01000   
   2    25     1  49     1   25.5       24.5       0.01000   
   2    25     1  50     1   25.5       24.5       0.01000   
   2    25     1  51     1   25.5       24.5       0.01000   
   2    25     1  52     1   25.5       24.5       0.01000   
   2    25     1  53     1   25.5       24.5       0.01000   
   2    25     1  54     1   25.5       24.5       0.01000   
   2    25     1  55     1   25.6       24.6       0.01000   
   2    25     1  56     1   25.6       24.6       0.01000   
   2    25     1  57     1   25.6       24.6       0.01000   
   2    25     1  58     1   25.6       24.6       0.01000   
   2    25     1  59     1   25.6       24.6       0.01000   
   2    25     1  60     1   25.6       24.6       0.01000   
   2    25     1  61     1   25.6       24.6       0.01000   
   2    25     1  62     1   25.6       24.6       0.01000   
   2    25     1  63     1   25.6       24.6       0.01000   
   2    25     1  64     1   25.6       24.6       0.01000   
   2    25     1  65     1   25.7       24.6       0.01000   
   2    25     1  66     1   25.7       24.7       0.01000   
   2    25     1  67     1   25.7       24.7       0.01000   
   2    25     1  68     1   25.7       24.7       0.01000   
   2    25     1  69     1   25.7       24.7       0.01000   
   2    25     1  70     1   25.7       24.7       0.01000   
   2    25     1  71     1   25.7       24.7       0.01000   
   2    25     1  72     1   25.7       24.7       0.01000   
   2    25     1  73     1   25.7       24.7       0.01000   
   2    25     1  74     1   25.7       24.7       0.01000   
   2    25     1  75     1   25.8       24.8       0.01000   
   2    25     1  76     1   25.8       24.8       0.01000   
   2    25     1  77     1   25.8       24.8       0.01000   
   2    25     1  78     1   25.8       24.8       0.01000   
   2    25     1  79     1   25.8       24.8       0.01000   
   2    25     1  80     1   25.8       24.8       0.01000   
   2    25     1  81     1   25.8       24.8       0.01000   
   2    25     1  82     1   25.8       24.8       0.01000   
   2    25     1  83     1   25.8       24.8       0.01000   
   2    25     1  84     1   25.8       24.8       0.01000   
   2    25     1  85     1   25.9       24.9       0.01000   
   2    25     1  86     1   25.9       24.9       0.01000   
   2    25     1  87     1   25.9       24.9       0.01000   
   2    25     1  88     1   25.9       24.9       0.01000   
   2    25     1  89     1   25.9       24.9       0.01000   
   2    25     1  90     1   25.9       24.9       0.01000   
   2    25     1  91     1   25.9       24.9       0.01000   
   2    25     1  92     1   25.9       24.9       0.01000   
   2    25     1  93     1   25.9       24.9       0.01000   
   2    25     1  94     1   25.9       24.9       0.01000   
   2    25     1  95     1   25.9       24.9       0.01000   
   2    25     1  96     1   26.0       25.0       0.01000   
   2    25     1  97     1   26.0       25.0       0.01000   
   2    25     1  98     1   26.0       25.0       0.01000   
   2    25     1  99     1   26.0       25.0       0.01000   
   2    25     1 100     1   26.0       25.0       0.01000   
   2    25     2   1     1   25.0       24.0       0.01000   
   2    25     2   2     1   25.0       24.0       0.01000   
   2    25     2   3     1   25.0       24.0       0.01000   
   2    25     2   4     1   25.0       24.0       0.01000   
   2    25     2   5     1   25.1       24.1       0.01000   
   2    25     2   6     1   25.1       24.1       0.01000   
   2    25     2   7     1   25.1       24.1       0.01000   
   2    25     2   8     1   25.1       24.1       0.01000   
   2    25     2   9     1   25.1       24.1       0.01000   
   2    25     2  10     1   25.1       24.1       0.01000   
   2    25     2  11     1   25.1       24.1       0.01000   
   2    25     2  12     1   25.1       24.1       0.01000   
   2    25     2  13     1   25.1       24.1       0.01000   
   2    25     2  14     1   25.1       24.1       0.01000   
   2    25     2  15     1   25.1       24.1       0.01000   
   2    25     2  16     1   25.2       24.2       0.01000   
   2    25     2  17     1   25.2       24.2       0.01000   
   2    25     2  18     1   25.2       24.2       0.01000   
   2    25     2  19     1   25.2       24.2       0.01000   
   2    25     2  20     1   25.2       24.2       0.01000   
   2    25     2  21     1   25.2       24.2       0.01000   
   2    25     2  22     1   25.2       24.2       0.01000   
   2    25     2  23     1   25.2       24.2       0.01000   
   2    25     2  24     1   25.2       24.2       0.01000   
   2    25     2  25     1   25.2       24.2       0.01000   
   2    25     2  26     1   25.3       24.3       0.01000   
   2    25     2  27     1   25.3       24.3       0.01000   
   2    25     2  28     1   25.3       24.3       0.01000   
   2    25     2  29     1   25.3       24.3       0.01000   
   2    25     2  30     1   25.3       24.3       0.01000   
   2    25     2  31     1   25.3       24.3       0.01000   
   2    25     2  32     1   25.3       24.3       0.01000   
   2    25     2  33     1   25.3       24.3       0.01000   
   2    25     2  34     1   25.3       24.3       0.01000   
   2    25     2  35     1   25.4       24.4       0.01000   
   2    25     2  36     1   25.4       24.4       0.01000   
   2    25     2  37     1   25.4       24.4       0.01000   
   2    25     2  38     1   25.4       24.4       0.01000   
   2    25     2  39     1   25.4       24.4       0.01000   
   2    25     2  40     1   25.4       24.4       0.01000   
   2    25     2  41     1   25.4       24.4       0.01000   
   2    25     2  42     1   25.4       24.4       0.01000   
   2    25     2  43     1   25.4       24.4       0.01000   
   2    25     2  44     1   25.4       24.4       0.01000   
   2    25     2  45     1   25.4       24.4       0.01000   
   2    25     2  46     1   25.5       24.5       0.01000   
   2    25     2  47     1   25.5       24.5       0.01000   
   2    25     2  48     1   25.5       24.5       0.01000   
   2    25     2  49     1   25.5       24.5       0.01000   
   2    25     2  50     1   25.5       24.5       0.01000   
   2    25     2  51     1   25.5       24.5       0.01000   
   2    25     2  52     1   25.5       24.5       0.01000   
   2    25     2  53     1   25.5       24.5       0.01000   
   2    25     2  54     1   25.5       24.5       0.01000   
   2    25     2  55     1   25.6       24.6       0.01000   
   2    25     2  56     1   25.6       24.6       0.01000   
   2    25     2  57     1   25.6       24.6       0.01000   
   2    25     2  58     1   25.6       24.6       0.01000   
   2    25     2  59     1   25.6       24.6       0.01000   
   2    25     2  60     1   25.6       24.6       0.01000   
   2    25     2  61     1   25.6       24.6       0.01000   
   2    25     2  62     1   25.6       24.6       0.01000   
   2    25     2  63     1   25.6       24.6       0.01000   
   2    25     2  64     1   25.6       24.6       0.01000   
   2    25     2  65     1   25.7       24.6       0.01000   
   2    25     2  66     1   25.7       24.7       0.01000   
   2    25     2  67     1   25.7       24.7       0.01000   
   2    25     2  68     1   25.7       24.7       0.01000   
   2    25     2  69     1   25.7       24.7       0.01000   
   2    25     2  70     1   25.7       24.7       0.01000   
   2    25     2  71     1   25.7       24.7       0.01000   
   2    25     2  72     1   25.7       24.7       0.01000   
   2    25     2  73     1   25.7       24.7       0.01000   
   2    25     2  74     1   25.7       24.7       0.01000   
   2    25     2  75     1   25.8       24.8       0.01000   
[...]
   2    47     3  80     1   47.8       46.8       0.01000   
   2    47     3  81     1   47.8       46.8       0.01000   
   2    47     3  82     1   47.8       46.8       0.01000   
   2    47     3  83     1   47.8       46.8       0.01000   
   2    47     3  84     1   47.8       46.8       0.01000   
   2    47     3  85     1   47.9       46.9       0.01000   
   2    47     3  86     1   47.9       46.9       0.01000   
   2    47     3  87     1   47.9       46.9       0.01000   
   2    47     3  88     1   47.9       46.9       0.01000   
   2    47     3  89     1   47.9       46.9       0.01000   
   2    47     3  90     1   47.9       46.9       0.01000   
   2    47     3  91     1   47.9       46.9       0.01000   
   2    47     3  92     1   47.9       46.9       0.01000   
   2    47     3  93     1   47.9       46.9       0.01000   
   2    47     3  94     1   47.9       46.9       0.01000   
   2    47     3  95     1   48.0       47.0       0.01000   
   2    47     3  96     1   48.0       47.0       0.01000   
   2    47     3  97     1   48.0       47.0       0.01000   
   2    47     3  98     1   48.0       47.0       0.01000   
   2    47     3  99     1   48.0       47.0       0.01000   
   2    47     3 100     1   48.0       47.0       0.01000   
   2    50     1   1     1   50.0       49.0       0.01000   
   2    50     1   2     1   50.0       49.0       0.01000   
   2    50     1   3     1   50.0       49.0       0.01000   
   2    50     1   4     1   50.0       49.0       0.01000   
   2    50     1   5     1   50.0       49.0       0.01000   
   2    50     1   6     1   50.1       49.1       0.01000   
   2    50     1   7     1   50.1       49.1       0.01000   
   2    50     1   8     1   50.1       49.1       0.01000   
   2    50     1   9     1   50.1       49.1       0.01000   
   2    50     1  10     1   50.1       49.1       0.01000   
   2    50     1  11     1   50.1       49.1       0.01000   
   2    50     1  12     1   50.1       49.1       0.01000   
   2    50     1  13     1   50.1       49.1       0.01000   
   2    50     1  14     1   50.1       49.1       0.01000   
   2    50     1  15     1   50.1       49.1       0.01000   
   2    50     1  16     1   50.2       49.2       0.01000   
   2    50     1  17     1   50.2       49.2       0.01000   
   2    50     1  18     1   50.2       49.2       0.01000   
   2    50     1  19     1   50.2       49.2       0.01000   
   2    50     1  20     1   50.2       49.2       0.01000   
   2    50     1  21     1   50.2       49.2       0.01000   
   2    50     1  22     1   50.2       49.2       0.01000   
   2    50     1  23     1   50.2       49.2       0.01000   
   2    50     1  24     1   50.2       49.2       0.01000   
   2    50     1  25     1   50.2       49.2       0.01000   
   2    50     1  26     1   50.3       49.3       0.01000   
   2    50     1  27     1   50.3       49.3       0.01000   
   2    50     1  28     1   50.3       49.3       0.01000   
   2    50     1  29     1   50.3       49.3       0.01000   
   2    50     1  30     1   50.3       49.3       0.01000   
   2    50     1  31     1   50.3       49.3       0.01000   
   2    50     1  32     1   50.3       49.3       0.01000   
   2    50     1  33     1   50.3       49.3       0.01000   
   2    50     1  34     1   50.3       49.3       0.01000   
   2    50     1  35     1   50.4       49.4       0.01000   
   2    50     1  36     1   50.4       49.4       0.01000   
   2    50     1  37     1   50.4       49.4       0.01000   
   2    50     1  38     1   50.4       49.4       0.01000   
   2    50     1  39     1   50.4       49.4       0.01000   
   2    50     1  40     1   50.4       49.4       0.01000   
   2    50     1  41     1   50.4       49.4       0.01000   
   2    50     1  42     1   50.4       49.4       0.01000   
   2    50     1  43     1   50.4       49.4       0.01000   
   2    50     1  44     1   50.4       49.4       0.01000   
   2    50     1  45     1   50.5       49.5       0.01000   
   2    50     1  46     1   50.5       49.5       0.01000   
   2    50     1  47     1   50.5       49.5       0.01000   
   2    50     1  48     1   50.5       49.5       0.01000   
   2    50     1  49     1   50.5       49.5       0.01000   
   2    50     1  50     1   50.5       49.5       0.01000   
   2    50     1  51     1   50.5       49.5       0.01000   
   2    50     1  52     1   50.5       49.5       0.01000   
   2    50     1  53     1   50.5       49.5       0.01000   
   2    50     1  54     1   50.5       49.5       0.01000   
   2    50     1  55     1   50.5       49.5       0.01000   
   2    50     1  56     1   50.6       49.6       0.01000   
   2    50     1  57     1   50.6       49.6       0.01000   
   2    50     1  58     1   50.6       49.6       0.01000   
   2    50     1  59     1   50.6       49.6       0.01000   
   2    50     1  60     1   50.6       49.6       0.01000   
   2    50     1  61     1   50.6       49.6       0.01000   
   2    50     1  62     1   50.6       49.6       0.01000   
   2    50     1  63     1   50.6       49.6       0.01000   
   2    50     1  64     1   50.6       49.6       0.01000   
   2    50     1  65     1   50.6       49.6       0.01000   
   2    50     1  66     1   50.7       49.7       0.01000   
   2    50     1  67     1   50.7       49.7       0.01000   
   2    50     1  68     1   50.7       49.7       0.01000   
   2    50     1  69     1   50.7       49.7       0.01000   
   2    50     1  70     1   50.7       49.7       0.01000   
   2    50     1  71     1   50.7       49.7       0.01000   
   2    50     1  72     1   50.7       49.7       0.01000   
   2    50     1  73     1   50.7       49.7       0.01000   
   2    50     1  74     1   50.7       49.7       0.01000   
   2    50     1  75     1   50.8       49.8       0.01000   
   2    50     1  76     1   50.8       49.8       0.01000   
   2    50     1  77     1   50.8       49.8       0.01000   
   2    50     1  78     1   50.8       49.8       0.01000   
   2    50     1  79     1   50.8       49.8       0.01000   
   2    50     1  80     1   50.8       49.8       0.01000   
   2    50     1  81     1   50.8       49.8       0.01000   
   2    50     1  82     1   50.8       49.8       0.01000   
   2    50     1  83     1   50.8       49.8       0.01000   
   2    50     1  84     1   50.8       49.8       0.01000   
   2    50     1  85     1   50.9       49.9       0.01000   
   2    50     1  86     1   50.9       49.9       0.01000   
   2    50     1  87     1   50.9       49.9       0.01000   
   2    50     1  88     1   50.9       49.9       0.01000   
   2    50     1  89     1   50.9       49.9       0.01000   
   2    50     1  90     1   50.9       49.9       0.01000   
   2    50     1  91     1   50.9       49.9       0.01000   
   2    50     1  92     1   50.9       49.9       0.01000   
   2    50     1  93     1   50.9       49.9       0.01000   
   2    50     1  94     1   50.9       49.9       0.01000   
   2    50     1  95     1   51.0       50.0       0.01000   
   2    50     1  96     1   51.0       50.0       0.01000   
   2    50     1  97     1   51.0       50.0       0.01000   
   2    50     1  98     1   51.0       50.0       0.01000   
   2    50     1  99     1   51.0       50.0       0.01000   
   2    50     1 100     1   51.0       50.0       0.01000   
   2    50     2   1     1   50.0       49.0       0.01000   
   2    50     2   2     1   50.0       49.0       0.01000   
   2    50     2   3     1   50.0       49.0       0.01000   
   2    50     2   4     1   50.0       49.0       0.01000   
   2    50     2   5     1   50.0       49.0       0.01000   
   2    50     2   6     1   50.1       49.1       0.01000   
   2    50     2   7     1   50.1       49.1       0.01000   
   2    50     2   8     1   50.1       49.1       0.01000   
   2    50     2   9     1   50.1       49.1       0.01000   
   2    50     2  10     1   50.1       49.1       0.01000   
   2    50     2  11     1   50.1       49.1       0.01000   
   2    50     2  12     1   50.1       49.1       0.01000   
   2    50     2  13     1   50.1       49.1       0.01000   
   2    50     2  14     1   50.1       49.1       0.01000   
   2    50     2  15     1   50.1       49.1       0.01000   
   2    50     2  16     1   50.2       49.2       0.01000   
   2    50     2  17     1   50.2       49.2       0.01000   
   2    50     2  18     1   50.2       49.2       0.01000   
   2    50     2  19     1   50.2       49.2       0.01000   
   2    50     2  20     1   50.2       49.2       0.01000   
   2    50     2  21     1   50.2       49.2       0.01000   
   2    50     2  22     1   50.2       49.2       0.01000   
   2    50     2  23     1   50.2       49.2       0.01000   
   2    50     2  24     1   50.2       49.2       0.01000   
   2    50     2  25     1   50.2       49.2       0.01000   
   2    50     2  26     1   50.3       49.3       0.01000   
   2    50     2  27     1   50.3       49.3       0.01000   
   2    50     2  28     1   50.3       49.3       0.01000   
   2    50     2  29     1   50.3       49.3       0.01000   
   2    50     2  30     1   50.3       49.3       0.01000   
   2    50     2  31     1   50.3       49.3       0.01000   
   2    50     2  32     1   50.3       49.3       0.01000   
   2    50     2  33     1   50.3       49.3       0.01000   
   2    50     2  34     1   50.3       49.3       0.01000   
   2    50     2  35     1   50.4       49.4       0.01000   
   2    50     2  36     1   50.4       49.4       0.01000   
   2    50     2  37     1   50.4       49.4       0.01000   
   2    50     2  38     1   50.4       49.4       0.01000   
   2    50     2  39     1   50.4       49.4       0.01000   
   2    50     2  40     1   50.4       49.4       0.01000   
   2    50     2  41     1   50.4       49.4       0.01000   
   2    50     2  42     1   50.4       49.4       0.01000   
   2    50     2  43     1   50.4       49.4       0.01000   
   2    50     2  44     1   50.4       49.4       0.01000   
   2    50     2  45     1   50.5       49.5       0.01000   
   2    50     2  46     1   50.5       49.5       0.01000   
   2    50     2  47     1   50.5       49.5       0.01000   
   2    50     2  48     1   50.5       49.5       0.01000   
   2    50     2  49     1   50.5       49.5       0.01000   
   2    50     2  50     1   50.5       49.5       0.01000   
   2    50     2  51     1   50.5       49.5       0.01000   
   2    50     2  52     1   50.5       49.5       0.01000   
   2    50     2  53     1   50.5       49.5       0.01000   
   2    50     2  54     1   50.5       49.5       0.01000   
   2    50     2  55     1   50.5       49.5       0.01000   
   2    50     2  56     1   50.6       49.6       0.01000   
   2    50     2  57     1   50.6       49.6       0.01000   
   2    50     2  58     1   50.6       49.6       0.01000   
   2    50     2  59     1   50.6       49.6       0.01000   
   2    50     2  60     1   50.6       49.6       0.01000   
   2    50     2  61     1   50.6       49.6       0.01000   
   2    50     2  62     1   50.6       49.6       0.01000   
   2    50     2  63     1   50.6       49.6       0.01000   
   2    50     2  64     1   50.6       49.6       0.01000   
   2    50     2  65     1   50.6       49.6       0.01000   
   2    50     2  66     1   50.7       49.7       0.01000   
   2    50     2  67     1   50.7       49.7       0.01000   
   2    50     2  68     1   50.7       49.7       0.01000   
   2    50     2  69     1   50.7       49.7       0.01000   
   2    50     2  70     1   50.7       49.7       0.01000   
   2    50     2  71     1   50.7       49.7       0.01000   
   2    50     2  72     1   50.7       49.7       0.01000   
   2    50     2  73     1   50.7       49.7       0.01000   
   2    50     2  74     1   50.7       49.7       0.01000   
   2    50     2  75     1   50.8       49.8       0.01000   
   2    50     2  76     1   50.8       49.8       0.01000   
   2    50     2  77     1   50.8       49.8       0.01000   
   2    50     2  78     1   50.8       49.8       0.01000   
   2    50     2  79     1   50.8       49.8       0.01000   
   2    50     2  80     1   50.8       49.8       0.01000   
   2    50     2  81     1   50.8       49.8       0.01000   
   2    50     2  82     1   50.8       49.8       0.01000   
   2    50     2  83     1   50.8       49.8       0.01000   
   2    50     2  84     1   50.8       49.8       0.01000   
   2    50     2  85     1   50.9       49.9       0.01000   
   2    50     2  86     1   50.9       49.9       0.01000   
   2    50     2  87     1   50.9       49.9       0.01000   
   2    50     2  88     1   50.9       49.9       0.01000   
   2    50     2  89     1   50.9       49.9       0.01000   
   2    50     2  90     1   50.9       49.9       0.01000   
   2    50     2  91     1   50.9       49.9       0.01000   
   2    50     2  92     1   50.9       49.9       0.01000   
   2    50     2  93     1   50.9       49.9       0.01000   
   2    50     2  94     1   50.9       49.9       0.01000   
   2    50     2  95     1   51.0       50.0       0.01000   
   2    50     2  96     1   51.0       50.0       0.01000   
   2    50     2  97     1   51.0       50.0       0.01000   
   2    50     2  98     1   51.0       50.0       0.01000   
   2    50     2  99     1   51.0       50.0       0.01000   
   2    50     2 100     1   51.0       50.0       0.01000   
   2    50     3   1     1   50.0       49.0       0.01000   
   2    50     3   2     1   50.0       49.0       0.01000   
   2    50     3   3     1   50.0       49.0       0.01000   
   2    50     3   4     1   50.0       49.0       0.01000   
   2    50     3   5     1   50.0       49.0       0.01000   
   2    50     3   6     1   50.1       49.1       0.01000   
   2    50     3   7     1   50.1       49.1       0.01000   
   2    50     3   8     1   50.1       49.1       0.01000   
   2    50     3   9     1   50.1       49.1       0.01000   
   2    50     3  10     1   50.1       49.1       0.01000   
   2    50     3  11     1   50.1       49.1       0.01000   
   2    50     3  12     1   50.1       49.1       0.01000   
   2    50     3  13     1   50.1       49.1       0.01000   
   2    50     3  14     1   50.1       49.1       0.01000   
   2    50     3  15     1   50.1       49.1       0.01000   
   2    50     3  16     1   50.2       49.2       0.01000   
   2    50     3  17     1   50.2       49.2       0.01000   
   2    50     3  18     1   50.2       49.2       0.01000   
   2    50     3  19     1   50.2       49.2       0.01000   
   2    50     3  20     1   50.2       49.2       0.01000   
   2    50     3  21     1   50.2       49.2       0.01000   
   2    50     3  22     1   50.2       49.2       0.01000   
   2    50     3  23     1   50.2       49.2       0.01000   
   2    50     3  24     1   50.2       49.2       0.01000   
   2    50     3  25     1   50.2       49.2       0.01000   
   2    50     3  26     1   50.3       49.3       0.01000   
   2    50     3  27     1   50.3       49.3       0.01000   
   2    50     3  28     1   50.3       49.3       0.01000   
   2    50     3  29     1   50.3       49.3       0.01000   
   2    50     3  30     1   50.3       49.3       0.01000   
   2    50     3  31     1   50.3       49.3       0.01000   
   2    50     3  32     1   50.3       49.3       0.01000   
   2    50     3  33     1   50.3       49.3       0.01000   
   2    50     3  34     1   50.3       49.3       0.01000   
   2    50     3  35     1   50.4       49.4       0.01000   
   2    50     3  36     1   50.4       49.4       0.01000   
   2    50     3  37     1   50.4       49.4       0.01000   
   2    50     3  38     1   50.4       49.4       0.01000   
   2    50     3  39     1   50.4       49.4       0.01000   
   2    50     3  40     1   50.4       49.4       0.01000   
   2    50     3  41     1   50.4       49.4       0.01000   
   2    50     3  42     1   50.4       49.4       0.01000   
   2    50     3  43     1   50.4       49.4       0.01000   
   2    50     3  44     1   50.4       49.4       0.01000   
   2    50     3  45     1   50.5       49.5       0.01000   
   2    50     3  46     1   50.5       49.5       0.01000   
   2    50     3  47     1   50.5       49.5       0.01000   
   2    50     3  48     1   50.5       49.5       0.01000   
   2    50     3  49     1   50.5       49.5       0.01000   
   2    50     3  50     1   50.5       49.5       0.01000   
   2    50     3  51     1   50.5       49.5       0.01000   
   2    50     3  52     1   50.5       49.5       0.01000   
   2    50     3  53     1   50.5       49.5       0.01000   
   2    50     3  54     1   50.5       49.5       0.01000   
   2    50     3  55     1   50.5       49.5       0.01000   
   2    50     3  56     1   50.6       49.6       0.01000   
   2    50     3  57     1   50.6       49.6       0.01000   
   2    50     3  58     1   50.6       49.6       0.01000   
   2    50     3  59     1   50.6       49.6       0.01000   
   2    50     3  60     1   50.6       49.6       0.01000   
   2    50     3  61     1   50.6       49.6       0.01000   
   2    50     3  62     1   50.6       49.6       0.01000   
   2    50     3  63     1   50.6       49.6       0.01000   
   2    50     3  64     1   50.6       49.6       0.01000   
   2    50     3  65     1   50.6       49.6       0.01000   
   2    50     3  66     1   50.7       49.7       0.01000   
   2    50     3  67     1   50.7       49.7       0.01000   
   2    50     3  68     1   50.7       49.7       0.01000   
   2    50     3  69     1   50.7       49.7       0.01000   
   2    50     3  70     1   50.7       49.7       0.01000   
   2    50     3  71     1   50.7       49.7       0.01000   
   2    50     3  72     1   50.7       49.7       0.01000   
   2    50     3  73     1   50.7       49.7       0.01000   
   2    50     3  74     1   50.7       49.7       0.01000   
   2    50     3  75     1   50.8       49.8       0.01000   
   2    50     3  76     1   50.8       49.8       0.01000   
   2    50     3  77     1   50.8       49.8       0.01000   
   2    50     3  78     1   50.8       49.8       0.01000   
   2    50     3  79     1   50.8       49.8       0.01000   
   2    50     3  80     1   50.8       49.8       0.01000   
   2    50     3  81     1   50.8       49.8       0.01000   
   2    50     3  82     1   50.8       49.8       0.01000   
   2    50     3  83     1   50.8       49.8       0.01000   
   2    50     3  84     1   50.8       49.8       0.01000   
   2    50     3  85     1   50.9       49.9       0.01000   
   2    50     3  86     1   50.9       49.9       0.01000   
   2    50     3  87     1   50.9       49.9       0.01000   
   2    50     3  88     1   50.9       49.9       0.01000   
   2    50     3  89     1   50.9       49.9       0.01000   
   2    50     3  90     1   50.9       49.9       0.01000   
   2    50     3  91     1   50.9       49.9       0.01000   
   2    50     3  92     1   50.9       49.9       0.01000   
   2    50     3  93     1   50.9       49.9       0.01000   
   2    50     3  94     1   50.9       49.9       0.01000   
   2    50     3  95     1   51.0       50.0       0.01000   
   2    50     3  96     1   51.0       50.0       0.01000   
   2    50     3  97     1   51.0       50.0       0.01000   
   2    50     3  98     1   51.0       50.0       0.01000   
   2    50     3  99     1   51.0       50.0       0.01000   
   2    50     3 100     1   51.0       50.0       0.01000   
                          
 THE ANALYSIS HAS COMPLETED SUCCESSFULLY
